 &NAMRGRI
  NRGRI(0001)=   18,
  NRGRI(0002)=   25,
  NRGRI(0003)=   32,
  NRGRI(0004)=   40,
  NRGRI(0005)=   45,
  NRGRI(0006)=   50,
  NRGRI(0007)=   60,
  NRGRI(0008)=   60,
  NRGRI(0009)=   72,
  NRGRI(0010)=   72,
  NRGRI(0011)=   75,
  NRGRI(0012)=   81,
  NRGRI(0013)=   90,
  NRGRI(0014)=   96,
  NRGRI(0015)=   96,
  NRGRI(0016)=  100,
  NRGRI(0017)=  108,
  NRGRI(0018)=  120,
  NRGRI(0019)=  120,
  NRGRI(0020)=  125,
  NRGRI(0021)=  135,
  NRGRI(0022)=  144,
  NRGRI(0023)=  150,
  NRGRI(0024)=  160,
  NRGRI(0025)=  160,
  NRGRI(0026)=  180,
  NRGRI(0027)=  180,
  NRGRI(0028)=  180,
  NRGRI(0029)=  192,
  NRGRI(0030)=  192,
  NRGRI(0031)=  200,
  NRGRI(0032)=  216,
  NRGRI(0033)=  216,
  NRGRI(0034)=  225,
  NRGRI(0035)=  225,
  NRGRI(0036)=  240,
  NRGRI(0037)=  240,
  NRGRI(0038)=  243,
  NRGRI(0039)=  250,
  NRGRI(0040)=  256,
  NRGRI(0041)=  270,
  NRGRI(0042)=  270,
  NRGRI(0043)=  288,
  NRGRI(0044)=  288,
  NRGRI(0045)=  288,
  NRGRI(0046)=  300,
  NRGRI(0047)=  300,
  NRGRI(0048)=  320,
  NRGRI(0049)=  320,
  NRGRI(0050)=  320,
  NRGRI(0051)=  360,
  NRGRI(0052)=  360,
  NRGRI(0053)=  360,
  NRGRI(0054)=  360,
  NRGRI(0055)=  360,
  NRGRI(0056)=  360,
  NRGRI(0057)=  375,
  NRGRI(0058)=  375,
  NRGRI(0059)=  384,
  NRGRI(0060)=  384,
  NRGRI(0061)=  400,
  NRGRI(0062)=  400,
  NRGRI(0063)=  400,
  NRGRI(0064)=  432,
  NRGRI(0065)=  432,
  NRGRI(0066)=  432,
  NRGRI(0067)=  432,
  NRGRI(0068)=  450,
  NRGRI(0069)=  450,
  NRGRI(0070)=  450,
  NRGRI(0071)=  480,
  NRGRI(0072)=  480,
  NRGRI(0073)=  480,
  NRGRI(0074)=  480,
  NRGRI(0075)=  480,
  NRGRI(0076)=  486,
  NRGRI(0077)=  500,
  NRGRI(0078)=  500,
  NRGRI(0079)=  512,
  NRGRI(0080)=  512,
  NRGRI(0081)=  540,
  NRGRI(0082)=  540,
  NRGRI(0083)=  540,
  NRGRI(0084)=  540,
  NRGRI(0085)=  540,
  NRGRI(0086)=  576,
  NRGRI(0087)=  576,
  NRGRI(0088)=  576,
  NRGRI(0089)=  576,
  NRGRI(0090)=  576,
  NRGRI(0091)=  600,
  NRGRI(0092)=  600,
  NRGRI(0093)=  600,
  NRGRI(0094)=  600,
  NRGRI(0095)=  640,
  NRGRI(0096)=  640,
  NRGRI(0097)=  640,
  NRGRI(0098)=  640,
  NRGRI(0099)=  640,
  NRGRI(0100)=  640,
  NRGRI(0101)=  640,
  NRGRI(0102)=  648,
  NRGRI(0103)=  675,
  NRGRI(0104)=  675,
  NRGRI(0105)=  675,
  NRGRI(0106)=  675,
  NRGRI(0107)=  675,
  NRGRI(0108)=  720,
  NRGRI(0109)=  720,
  NRGRI(0110)=  720,
  NRGRI(0111)=  720,
  NRGRI(0112)=  720,
  NRGRI(0113)=  720,
  NRGRI(0114)=  720,
  NRGRI(0115)=  729,
  NRGRI(0116)=  750,
  NRGRI(0117)=  750,
  NRGRI(0118)=  750,
  NRGRI(0119)=  750,
  NRGRI(0120)=  768,
  NRGRI(0121)=  768,
  NRGRI(0122)=  768,
  NRGRI(0123)=  800,
  NRGRI(0124)=  800,
  NRGRI(0125)=  800,
  NRGRI(0126)=  800,
  NRGRI(0127)=  800,
  NRGRI(0128)=  810,
  NRGRI(0129)=  810,
  NRGRI(0130)=  864,
  NRGRI(0131)=  864,
  NRGRI(0132)=  864,
  NRGRI(0133)=  864,
  NRGRI(0134)=  864,
  NRGRI(0135)=  864,
  NRGRI(0136)=  864,
  NRGRI(0137)=  864,
  NRGRI(0138)=  864,
  NRGRI(0139)=  900,
  NRGRI(0140)=  900,
  NRGRI(0141)=  900,
  NRGRI(0142)=  900,
  NRGRI(0143)=  900,
  NRGRI(0144)=  900,
  NRGRI(0145)=  960,
  NRGRI(0146)=  960,
  NRGRI(0147)=  960,
  NRGRI(0148)=  960,
  NRGRI(0149)=  960,
  NRGRI(0150)=  960,
  NRGRI(0151)=  960,
  NRGRI(0152)=  960,
  NRGRI(0153)=  960,
  NRGRI(0154)=  960,
  NRGRI(0155)=  972,
  NRGRI(0156)=  972,
  NRGRI(0157)=  972,
  NRGRI(0158)= 1000,
  NRGRI(0159)= 1000,
  NRGRI(0160)= 1000,
  NRGRI(0161)= 1000,
  NRGRI(0162)= 1000,
  NRGRI(0163)= 1024,
  NRGRI(0164)= 1024,
  NRGRI(0165)= 1024,
  NRGRI(0166)= 1024,
  NRGRI(0167)= 1080,
  NRGRI(0168)= 1080,
  NRGRI(0169)= 1080,
  NRGRI(0170)= 1080,
  NRGRI(0171)= 1080,
  NRGRI(0172)= 1080,
  NRGRI(0173)= 1080,
  NRGRI(0174)= 1080,
  NRGRI(0175)= 1080,
  NRGRI(0176)= 1125,
  NRGRI(0177)= 1125,
  NRGRI(0178)= 1125,
  NRGRI(0179)= 1125,
  NRGRI(0180)= 1125,
  NRGRI(0181)= 1125,
  NRGRI(0182)= 1125,
  NRGRI(0183)= 1125,
  NRGRI(0184)= 1152,
  NRGRI(0185)= 1152,
  NRGRI(0186)= 1152,
  NRGRI(0187)= 1152,
  NRGRI(0188)= 1152,
  NRGRI(0189)= 1200,
  NRGRI(0190)= 1200,
  NRGRI(0191)= 1200,
  NRGRI(0192)= 1200,
  NRGRI(0193)= 1200,
  NRGRI(0194)= 1200,
  NRGRI(0195)= 1200,
  NRGRI(0196)= 1200,
  NRGRI(0197)= 1200,
  NRGRI(0198)= 1215,
  NRGRI(0199)= 1215,
  NRGRI(0200)= 1215,
  NRGRI(0201)= 1280,
  NRGRI(0202)= 1280,
  NRGRI(0203)= 1280,
  NRGRI(0204)= 1280,
  NRGRI(0205)= 1280,
  NRGRI(0206)= 1280,
  NRGRI(0207)= 1280,
  NRGRI(0208)= 1280,
  NRGRI(0209)= 1280,
  NRGRI(0210)= 1280,
  NRGRI(0211)= 1280,
  NRGRI(0212)= 1280,
  NRGRI(0213)= 1296,
  NRGRI(0214)= 1296,
  NRGRI(0215)= 1296,
  NRGRI(0216)= 1350,
  NRGRI(0217)= 1350,
  NRGRI(0218)= 1350,
  NRGRI(0219)= 1350,
  NRGRI(0220)= 1350,
  NRGRI(0221)= 1350,
  NRGRI(0222)= 1350,
  NRGRI(0223)= 1350,
  NRGRI(0224)= 1350,
  NRGRI(0225)= 1350,
  NRGRI(0226)= 1440,
  NRGRI(0227)= 1440,
  NRGRI(0228)= 1440,
  NRGRI(0229)= 1440,
  NRGRI(0230)= 1440,
  NRGRI(0231)= 1440,
  NRGRI(0232)= 1440,
  NRGRI(0233)= 1440,
  NRGRI(0234)= 1440,
  NRGRI(0235)= 1440,
  NRGRI(0236)= 1440,
  NRGRI(0237)= 1440,
  NRGRI(0238)= 1440,
  NRGRI(0239)= 1440,
  NRGRI(0240)= 1440,
  NRGRI(0241)= 1440,
  NRGRI(0242)= 1440,
  NRGRI(0243)= 1440,
  NRGRI(0244)= 1458,
  NRGRI(0245)= 1458,
  NRGRI(0246)= 1458,
  NRGRI(0247)= 1458,
  NRGRI(0248)= 1500,
  NRGRI(0249)= 1500,
  NRGRI(0250)= 1500,
  NRGRI(0251)= 1500,
  NRGRI(0252)= 1500,
  NRGRI(0253)= 1500,
  NRGRI(0254)= 1500,
  NRGRI(0255)= 1500,
  NRGRI(0256)= 1536,
  NRGRI(0257)= 1536,
  NRGRI(0258)= 1536,
  NRGRI(0259)= 1536,
  NRGRI(0260)= 1536,
  NRGRI(0261)= 1536,
  NRGRI(0262)= 1536,
  NRGRI(0263)= 1536,
  NRGRI(0264)= 1600,
  NRGRI(0265)= 1600,
  NRGRI(0266)= 1600,
  NRGRI(0267)= 1600,
  NRGRI(0268)= 1600,
  NRGRI(0269)= 1600,
  NRGRI(0270)= 1600,
  NRGRI(0271)= 1600,
  NRGRI(0272)= 1600,
  NRGRI(0273)= 1600,
  NRGRI(0274)= 1600,
  NRGRI(0275)= 1600,
  NRGRI(0276)= 1600,
  NRGRI(0277)= 1600,
  NRGRI(0278)= 1620,
  NRGRI(0279)= 1620,
  NRGRI(0280)= 1620,
  NRGRI(0281)= 1620,
  NRGRI(0282)= 1728,
  NRGRI(0283)= 1728,
  NRGRI(0284)= 1728,
  NRGRI(0285)= 1728,
  NRGRI(0286)= 1728,
  NRGRI(0287)= 1728,
  NRGRI(0288)= 1728,
  NRGRI(0289)= 1728,
  NRGRI(0290)= 1728,
  NRGRI(0291)= 1728,
  NRGRI(0292)= 1728,
  NRGRI(0293)= 1728,
  NRGRI(0294)= 1728,
  NRGRI(0295)= 1728,
  NRGRI(0296)= 1728,
  NRGRI(0297)= 1728,
  NRGRI(0298)= 1728,
  NRGRI(0299)= 1728,
  NRGRI(0300)= 1728,
  NRGRI(0301)= 1728,
  NRGRI(0302)= 1728,
  NRGRI(0303)= 1728,
  NRGRI(0304)= 1728,
  NRGRI(0305)= 1728,
  NRGRI(0306)= 1728,
  NRGRI(0307)= 1800,
  NRGRI(0308)= 1800,
  NRGRI(0309)= 1800,
  NRGRI(0310)= 1800,
  NRGRI(0311)= 1800,
  NRGRI(0312)= 1800,
  NRGRI(0313)= 1800,
  NRGRI(0314)= 1800,
  NRGRI(0315)= 1800,
  NRGRI(0316)= 1800,
  NRGRI(0317)= 1800,
  NRGRI(0318)= 1800,
  NRGRI(0319)= 1800,
  NRGRI(0320)= 1800,
  NRGRI(0321)= 1800,
  NRGRI(0322)= 1800,
  NRGRI(0323)= 1800,
  NRGRI(0324)= 1875,
  NRGRI(0325)= 1875,
  NRGRI(0326)= 1875,
  NRGRI(0327)= 1875,
  NRGRI(0328)= 1875,
  NRGRI(0329)= 1875,
  NRGRI(0330)= 1875,
  NRGRI(0331)= 1875,
  NRGRI(0332)= 1875,
  NRGRI(0333)= 1875,
  NRGRI(0334)= 1875,
  NRGRI(0335)= 1875,
  NRGRI(0336)= 1875,
  NRGRI(0337)= 1875,
  NRGRI(0338)= 1875,
  NRGRI(0339)= 1875,
  NRGRI(0340)= 1875,
  NRGRI(0341)= 1875,
  NRGRI(0342)= 1875,
  NRGRI(0343)= 1920,
  NRGRI(0344)= 1920,
  NRGRI(0345)= 1920,
  NRGRI(0346)= 1920,
  NRGRI(0347)= 1920,
  NRGRI(0348)= 1920,
  NRGRI(0349)= 1920,
  NRGRI(0350)= 1920,
  NRGRI(0351)= 1920,
  NRGRI(0352)= 1920,
  NRGRI(0353)= 1920,
  NRGRI(0354)= 1920,
  NRGRI(0355)= 1920,
  NRGRI(0356)= 1944,
  NRGRI(0357)= 1944,
  NRGRI(0358)= 1944,
  NRGRI(0359)= 1944,
  NRGRI(0360)= 1944,
  NRGRI(0361)= 1944,
  NRGRI(0362)= 1944,
  NRGRI(0363)= 2000,
  NRGRI(0364)= 2000,
  NRGRI(0365)= 2000,
  NRGRI(0366)= 2000,
  NRGRI(0367)= 2000,
  NRGRI(0368)= 2000,
  NRGRI(0369)= 2000,
  NRGRI(0370)= 2000,
  NRGRI(0371)= 2000,
  NRGRI(0372)= 2000,
  NRGRI(0373)= 2000,
  NRGRI(0374)= 2000,
  NRGRI(0375)= 2000,
  NRGRI(0376)= 2000,
  NRGRI(0377)= 2000,
  NRGRI(0378)= 2000,
  NRGRI(0379)= 2000,
  NRGRI(0380)= 2025,
  NRGRI(0381)= 2025,
  NRGRI(0382)= 2025,
  NRGRI(0383)= 2025,
  NRGRI(0384)= 2025,
  NRGRI(0385)= 2025,
  NRGRI(0386)= 2025,
  NRGRI(0387)= 2025,
  NRGRI(0388)= 2048,
  NRGRI(0389)= 2048,
  NRGRI(0390)= 2048,
  NRGRI(0391)= 2048,
  NRGRI(0392)= 2048,
  NRGRI(0393)= 2048,
  NRGRI(0394)= 2048,
  NRGRI(0395)= 2160,
  NRGRI(0396)= 2160,
  NRGRI(0397)= 2160,
  NRGRI(0398)= 2160,
  NRGRI(0399)= 2160,
  NRGRI(0400)= 2160,
  NRGRI(0401)= 2160,
  NRGRI(0402)= 2160,
  NRGRI(0403)= 2160,
  NRGRI(0404)= 2160,
  NRGRI(0405)= 2160,
  NRGRI(0406)= 2160,
  NRGRI(0407)= 2160,
  NRGRI(0408)= 2160,
  NRGRI(0409)= 2160,
  NRGRI(0410)= 2160,
  NRGRI(0411)= 2160,
  NRGRI(0412)= 2160,
  NRGRI(0413)= 2160,
  NRGRI(0414)= 2160,
  NRGRI(0415)= 2160,
  NRGRI(0416)= 2160,
  NRGRI(0417)= 2160,
  NRGRI(0418)= 2160,
  NRGRI(0419)= 2160,
  NRGRI(0420)= 2160,
  NRGRI(0421)= 2160,
  NRGRI(0422)= 2160,
  NRGRI(0423)= 2160,
  NRGRI(0424)= 2160,
  NRGRI(0425)= 2160,
  NRGRI(0426)= 2160,
  NRGRI(0427)= 2160,
  NRGRI(0428)= 2160,
  NRGRI(0429)= 2160,
  NRGRI(0430)= 2160,
  NRGRI(0431)= 2160,
  NRGRI(0432)= 2160,
  NRGRI(0433)= 2160,
  NRGRI(0434)= 2160,
  NRGRI(0435)= 2160,
  NRGRI(0436)= 2160,
  NRGRI(0437)= 2160,
  NRGRI(0438)= 2187,
  NRGRI(0439)= 2187,
  NRGRI(0440)= 2187,
  NRGRI(0441)= 2187,
  NRGRI(0442)= 2187,
  NRGRI(0443)= 2187,
  NRGRI(0444)= 2187,
  NRGRI(0445)= 2187,
  NRGRI(0446)= 2187,
  NRGRI(0447)= 2187,
  NRGRI(0448)= 2187,
  NRGRI(0449)= 2187,
  NRGRI(0450)= 2250,
  NRGRI(0451)= 2250,
  NRGRI(0452)= 2250,
  NRGRI(0453)= 2250,
  NRGRI(0454)= 2250,
  NRGRI(0455)= 2250,
  NRGRI(0456)= 2250,
  NRGRI(0457)= 2250,
  NRGRI(0458)= 2250,
  NRGRI(0459)= 2250,
  NRGRI(0460)= 2250,
  NRGRI(0461)= 2250,
  NRGRI(0462)= 2250,
  NRGRI(0463)= 2250,
  NRGRI(0464)= 2250,
  NRGRI(0465)= 2250,
  NRGRI(0466)= 2250,
  NRGRI(0467)= 2250,
  NRGRI(0468)= 2250,
  NRGRI(0469)= 2250,
  NRGRI(0470)= 2250,
  NRGRI(0471)= 2250,
  NRGRI(0472)= 2250,
  NRGRI(0473)= 2250,
  NRGRI(0474)= 2250,
  NRGRI(0475)= 2250,
  NRGRI(0476)= 2250,
  NRGRI(0477)= 2250,
  NRGRI(0478)= 2250,
  NRGRI(0479)= 2250,
  NRGRI(0480)= 2250,
  NRGRI(0481)= 2250,
  NRGRI(0482)= 2250,
  NRGRI(0483)= 2250,
  NRGRI(0484)= 2250,
  NRGRI(0485)= 2250,
  NRGRI(0486)= 2304,
  NRGRI(0487)= 2304,
  NRGRI(0488)= 2304,
  NRGRI(0489)= 2304,
  NRGRI(0490)= 2304,
  NRGRI(0491)= 2304,
  NRGRI(0492)= 2304,
  NRGRI(0493)= 2304,
  NRGRI(0494)= 2304,
  NRGRI(0495)= 2304,
  NRGRI(0496)= 2304,
  NRGRI(0497)= 2304,
  NRGRI(0498)= 2304,
  NRGRI(0499)= 2304,
  NRGRI(0500)= 2304,
  NRGRI(0501)= 2304,
  NRGRI(0502)= 2304,
  NRGRI(0503)= 2304,
  NRGRI(0504)= 2304,
  NRGRI(0505)= 2304,
  NRGRI(0506)= 2304,
  NRGRI(0507)= 2304,
  NRGRI(0508)= 2304,
  NRGRI(0509)= 2304,
  NRGRI(0510)= 2304,
  NRGRI(0511)= 2304,
  NRGRI(0512)= 2304,
  NRGRI(0513)= 2304,
  NRGRI(0514)= 2304,
  NRGRI(0515)= 2304,
  NRGRI(0516)= 2304,
  NRGRI(0517)= 2304,
  NRGRI(0518)= 2304,
  NRGRI(0519)= 2304,
  NRGRI(0520)= 2304,
  NRGRI(0521)= 2304,
  NRGRI(0522)= 2304,
  NRGRI(0523)= 2304,
  NRGRI(0524)= 2304,
  NRGRI(0525)= 2304,
  NRGRI(0526)= 2304,
  NRGRI(0527)= 2304,
  NRGRI(0528)= 2304,
  NRGRI(0529)= 2304,
  NRGRI(0530)= 2304,
  NRGRI(0531)= 2304,
  NRGRI(0532)= 2304,
  NRGRI(0533)= 2304,
  NRGRI(0534)= 2304,
  NRGRI(0535)= 2304,
  NRGRI(0536)= 2304,
  NRGRI(0537)= 2304,
  NRGRI(0538)= 2304,
  NRGRI(0539)= 2304,
  NRGRI(0540)= 2304,
  NRGRI(0541)= 2304,
  NRGRI(0542)= 2304,
  NRGRI(0543)= 2304,
  NRGRI(0544)= 2304,
  NRGRI(0545)= 2304,
  NRGRI(0546)= 2304,
  NRGRI(0547)= 2304,
  NRGRI(0548)= 2304,
  NRGRI(0549)= 2304,
  NRGRI(0550)= 2304,
  NRGRI(0551)= 2304,
  NRGRI(0552)= 2304,
  NRGRI(0553)= 2304,
  NRGRI(0554)= 2304,
  NRGRI(0555)= 2304,
  NRGRI(0556)= 2304,
  NRGRI(0557)= 2304,
  NRGRI(0558)= 2304,
  NRGRI(0559)= 2304,
  NRGRI(0560)= 2304,
  NRGRI(0561)= 2304,
  NRGRI(0562)= 2304,
  NRGRI(0563)= 2304,
  NRGRI(0564)= 2304,
  NRGRI(0565)= 2304,
  NRGRI(0566)= 2304,
  NRGRI(0567)= 2304,
  NRGRI(0568)= 2304,
  NRGRI(0569)= 2304,
  NRGRI(0570)= 2304,
  NRGRI(0571)= 2304,
  NRGRI(0572)= 2304,
  NRGRI(0573)= 2304,
  NRGRI(0574)= 2304,
  NRGRI(0575)= 2304,
  NRGRI(0576)= 2304,
  NRGRI(0577)= 2304,
  NRGRI(0578)= 2304,
  NRGRI(0579)= 2304,
  NRGRI(0580)= 2304,
  NRGRI(0581)= 2304,
  NRGRI(0582)= 2304,
  NRGRI(0583)= 2304,
  NRGRI(0584)= 2304,
  NRGRI(0585)= 2304,
  NRGRI(0586)= 2304,
  NRGRI(0587)= 2304,
  NRGRI(0588)= 2304,
  NRGRI(0589)= 2304,
  NRGRI(0590)= 2304,
  NRGRI(0591)= 2304,
  NRGRI(0592)= 2304,
  NRGRI(0593)= 2304,
  NRGRI(0594)= 2304,
  NRGRI(0595)= 2304,
  NRGRI(0596)= 2304,
  NRGRI(0597)= 2304,
  NRGRI(0598)= 2304,
  NRGRI(0599)= 2304,
  NRGRI(0600)= 2304,
  NRGRI(0601)= 2304,
  NRGRI(0602)= 2304,
  NRGRI(0603)= 2304,
  NRGRI(0604)= 2304,
  NRGRI(0605)= 2304,
  NRGRI(0606)= 2304,
  NRGRI(0607)= 2304,
  NRGRI(0608)= 2304,
  NRGRI(0609)= 2304,
  NRGRI(0610)= 2304,
  NRGRI(0611)= 2304,
  NRGRI(0612)= 2304,
  NRGRI(0613)= 2304,
  NRGRI(0614)= 2304,
  NRGRI(0615)= 2304,
  NRGRI(0616)= 2304,
  NRGRI(0617)= 2304,
  NRGRI(0618)= 2304,
  NRGRI(0619)= 2304,
  NRGRI(0620)= 2304,
  NRGRI(0621)= 2304,
  NRGRI(0622)= 2304,
  NRGRI(0623)= 2304,
  NRGRI(0624)= 2304,
  NRGRI(0625)= 2304,
  NRGRI(0626)= 2304,
  NRGRI(0627)= 2304,
  NRGRI(0628)= 2304,
  NRGRI(0629)= 2304,
  NRGRI(0630)= 2304,
  NRGRI(0631)= 2304,
  NRGRI(0632)= 2304,
  NRGRI(0633)= 2304,
  NRGRI(0634)= 2304,
  NRGRI(0635)= 2304,
  NRGRI(0636)= 2304,
  NRGRI(0637)= 2304,
  NRGRI(0638)= 2304,
  NRGRI(0639)= 2304,
  NRGRI(0640)= 2304,
  NRGRI(0641)= 2304,
  NRGRI(0642)= 2304,
  NRGRI(0643)= 2304,
  NRGRI(0644)= 2304,
  NRGRI(0645)= 2304,
  NRGRI(0646)= 2304,
  NRGRI(0647)= 2304,
  NRGRI(0648)= 2304,
  NRGRI(0649)= 2304,
  NRGRI(0650)= 2304,
  NRGRI(0651)= 2304,
  NRGRI(0652)= 2304,
  NRGRI(0653)= 2304,
  NRGRI(0654)= 2304,
  NRGRI(0655)= 2304,
  NRGRI(0656)= 2304,
  NRGRI(0657)= 2304,
  NRGRI(0658)= 2304,
  NRGRI(0659)= 2304,
  NRGRI(0660)= 2304,
  NRGRI(0661)= 2304,
  NRGRI(0662)= 2304,
  NRGRI(0663)= 2304,
  NRGRI(0664)= 2304,
  NRGRI(0665)= 2304,
  NRGRI(0666)= 2304,
  NRGRI(0667)= 2304,
  NRGRI(0668)= 2250,
  NRGRI(0669)= 2250,
  NRGRI(0670)= 2250,
  NRGRI(0671)= 2250,
  NRGRI(0672)= 2250,
  NRGRI(0673)= 2250,
  NRGRI(0674)= 2250,
  NRGRI(0675)= 2250,
  NRGRI(0676)= 2250,
  NRGRI(0677)= 2250,
  NRGRI(0678)= 2250,
  NRGRI(0679)= 2250,
  NRGRI(0680)= 2250,
  NRGRI(0681)= 2250,
  NRGRI(0682)= 2250,
  NRGRI(0683)= 2250,
  NRGRI(0684)= 2250,
  NRGRI(0685)= 2250,
  NRGRI(0686)= 2250,
  NRGRI(0687)= 2250,
  NRGRI(0688)= 2250,
  NRGRI(0689)= 2250,
  NRGRI(0690)= 2250,
  NRGRI(0691)= 2250,
  NRGRI(0692)= 2250,
  NRGRI(0693)= 2250,
  NRGRI(0694)= 2250,
  NRGRI(0695)= 2250,
  NRGRI(0696)= 2250,
  NRGRI(0697)= 2250,
  NRGRI(0698)= 2250,
  NRGRI(0699)= 2250,
  NRGRI(0700)= 2250,
  NRGRI(0701)= 2250,
  NRGRI(0702)= 2250,
  NRGRI(0703)= 2250,
  NRGRI(0704)= 2187,
  NRGRI(0705)= 2187,
  NRGRI(0706)= 2187,
  NRGRI(0707)= 2187,
  NRGRI(0708)= 2187,
  NRGRI(0709)= 2187,
  NRGRI(0710)= 2187,
  NRGRI(0711)= 2187,
  NRGRI(0712)= 2187,
  NRGRI(0713)= 2187,
  NRGRI(0714)= 2187,
  NRGRI(0715)= 2187,
  NRGRI(0716)= 2160,
  NRGRI(0717)= 2160,
  NRGRI(0718)= 2160,
  NRGRI(0719)= 2160,
  NRGRI(0720)= 2160,
  NRGRI(0721)= 2160,
  NRGRI(0722)= 2160,
  NRGRI(0723)= 2160,
  NRGRI(0724)= 2160,
  NRGRI(0725)= 2160,
  NRGRI(0726)= 2160,
  NRGRI(0727)= 2160,
  NRGRI(0728)= 2160,
  NRGRI(0729)= 2160,
  NRGRI(0730)= 2160,
  NRGRI(0731)= 2160,
  NRGRI(0732)= 2160,
  NRGRI(0733)= 2160,
  NRGRI(0734)= 2160,
  NRGRI(0735)= 2160,
  NRGRI(0736)= 2160,
  NRGRI(0737)= 2160,
  NRGRI(0738)= 2160,
  NRGRI(0739)= 2160,
  NRGRI(0740)= 2160,
  NRGRI(0741)= 2160,
  NRGRI(0742)= 2160,
  NRGRI(0743)= 2160,
  NRGRI(0744)= 2160,
  NRGRI(0745)= 2160,
  NRGRI(0746)= 2160,
  NRGRI(0747)= 2160,
  NRGRI(0748)= 2160,
  NRGRI(0749)= 2160,
  NRGRI(0750)= 2160,
  NRGRI(0751)= 2160,
  NRGRI(0752)= 2160,
  NRGRI(0753)= 2160,
  NRGRI(0754)= 2160,
  NRGRI(0755)= 2160,
  NRGRI(0756)= 2160,
  NRGRI(0757)= 2160,
  NRGRI(0758)= 2160,
  NRGRI(0759)= 2048,
  NRGRI(0760)= 2048,
  NRGRI(0761)= 2048,
  NRGRI(0762)= 2048,
  NRGRI(0763)= 2048,
  NRGRI(0764)= 2048,
  NRGRI(0765)= 2048,
  NRGRI(0766)= 2025,
  NRGRI(0767)= 2025,
  NRGRI(0768)= 2025,
  NRGRI(0769)= 2025,
  NRGRI(0770)= 2025,
  NRGRI(0771)= 2025,
  NRGRI(0772)= 2025,
  NRGRI(0773)= 2025,
  NRGRI(0774)= 2000,
  NRGRI(0775)= 2000,
  NRGRI(0776)= 2000,
  NRGRI(0777)= 2000,
  NRGRI(0778)= 2000,
  NRGRI(0779)= 2000,
  NRGRI(0780)= 2000,
  NRGRI(0781)= 2000,
  NRGRI(0782)= 2000,
  NRGRI(0783)= 2000,
  NRGRI(0784)= 2000,
  NRGRI(0785)= 2000,
  NRGRI(0786)= 2000,
  NRGRI(0787)= 2000,
  NRGRI(0788)= 2000,
  NRGRI(0789)= 2000,
  NRGRI(0790)= 2000,
  NRGRI(0791)= 1944,
  NRGRI(0792)= 1944,
  NRGRI(0793)= 1944,
  NRGRI(0794)= 1944,
  NRGRI(0795)= 1944,
  NRGRI(0796)= 1944,
  NRGRI(0797)= 1944,
  NRGRI(0798)= 1920,
  NRGRI(0799)= 1920,
  NRGRI(0800)= 1920,
  NRGRI(0801)= 1920,
  NRGRI(0802)= 1920,
  NRGRI(0803)= 1920,
  NRGRI(0804)= 1920,
  NRGRI(0805)= 1920,
  NRGRI(0806)= 1920,
  NRGRI(0807)= 1920,
  NRGRI(0808)= 1920,
  NRGRI(0809)= 1920,
  NRGRI(0810)= 1920,
  NRGRI(0811)= 1875,
  NRGRI(0812)= 1875,
  NRGRI(0813)= 1875,
  NRGRI(0814)= 1875,
  NRGRI(0815)= 1875,
  NRGRI(0816)= 1875,
  NRGRI(0817)= 1875,
  NRGRI(0818)= 1875,
  NRGRI(0819)= 1875,
  NRGRI(0820)= 1875,
  NRGRI(0821)= 1875,
  NRGRI(0822)= 1875,
  NRGRI(0823)= 1875,
  NRGRI(0824)= 1875,
  NRGRI(0825)= 1875,
  NRGRI(0826)= 1875,
  NRGRI(0827)= 1875,
  NRGRI(0828)= 1875,
  NRGRI(0829)= 1875,
  NRGRI(0830)= 1800,
  NRGRI(0831)= 1800,
  NRGRI(0832)= 1800,
  NRGRI(0833)= 1800,
  NRGRI(0834)= 1800,
  NRGRI(0835)= 1800,
  NRGRI(0836)= 1800,
  NRGRI(0837)= 1800,
  NRGRI(0838)= 1800,
  NRGRI(0839)= 1800,
  NRGRI(0840)= 1800,
  NRGRI(0841)= 1800,
  NRGRI(0842)= 1800,
  NRGRI(0843)= 1800,
  NRGRI(0844)= 1800,
  NRGRI(0845)= 1800,
  NRGRI(0846)= 1800,
  NRGRI(0847)= 1728,
  NRGRI(0848)= 1728,
  NRGRI(0849)= 1728,
  NRGRI(0850)= 1728,
  NRGRI(0851)= 1728,
  NRGRI(0852)= 1728,
  NRGRI(0853)= 1728,
  NRGRI(0854)= 1728,
  NRGRI(0855)= 1728,
  NRGRI(0856)= 1728,
  NRGRI(0857)= 1728,
  NRGRI(0858)= 1728,
  NRGRI(0859)= 1728,
  NRGRI(0860)= 1728,
  NRGRI(0861)= 1728,
  NRGRI(0862)= 1728,
  NRGRI(0863)= 1728,
  NRGRI(0864)= 1728,
  NRGRI(0865)= 1728,
  NRGRI(0866)= 1728,
  NRGRI(0867)= 1728,
  NRGRI(0868)= 1728,
  NRGRI(0869)= 1728,
  NRGRI(0870)= 1728,
  NRGRI(0871)= 1728,
  NRGRI(0872)= 1620,
  NRGRI(0873)= 1620,
  NRGRI(0874)= 1620,
  NRGRI(0875)= 1620,
  NRGRI(0876)= 1600,
  NRGRI(0877)= 1600,
  NRGRI(0878)= 1600,
  NRGRI(0879)= 1600,
  NRGRI(0880)= 1600,
  NRGRI(0881)= 1600,
  NRGRI(0882)= 1600,
  NRGRI(0883)= 1600,
  NRGRI(0884)= 1600,
  NRGRI(0885)= 1600,
  NRGRI(0886)= 1600,
  NRGRI(0887)= 1600,
  NRGRI(0888)= 1600,
  NRGRI(0889)= 1600,
  NRGRI(0890)= 1536,
  NRGRI(0891)= 1536,
  NRGRI(0892)= 1536,
  NRGRI(0893)= 1536,
  NRGRI(0894)= 1536,
  NRGRI(0895)= 1536,
  NRGRI(0896)= 1536,
  NRGRI(0897)= 1536,
  NRGRI(0898)= 1500,
  NRGRI(0899)= 1500,
  NRGRI(0900)= 1500,
  NRGRI(0901)= 1500,
  NRGRI(0902)= 1500,
  NRGRI(0903)= 1500,
  NRGRI(0904)= 1500,
  NRGRI(0905)= 1500,
  NRGRI(0906)= 1458,
  NRGRI(0907)= 1458,
  NRGRI(0908)= 1458,
  NRGRI(0909)= 1458,
  NRGRI(0910)= 1440,
  NRGRI(0911)= 1440,
  NRGRI(0912)= 1440,
  NRGRI(0913)= 1440,
  NRGRI(0914)= 1440,
  NRGRI(0915)= 1440,
  NRGRI(0916)= 1440,
  NRGRI(0917)= 1440,
  NRGRI(0918)= 1440,
  NRGRI(0919)= 1440,
  NRGRI(0920)= 1440,
  NRGRI(0921)= 1440,
  NRGRI(0922)= 1440,
  NRGRI(0923)= 1440,
  NRGRI(0924)= 1440,
  NRGRI(0925)= 1440,
  NRGRI(0926)= 1440,
  NRGRI(0927)= 1440,
  NRGRI(0928)= 1350,
  NRGRI(0929)= 1350,
  NRGRI(0930)= 1350,
  NRGRI(0931)= 1350,
  NRGRI(0932)= 1350,
  NRGRI(0933)= 1350,
  NRGRI(0934)= 1350,
  NRGRI(0935)= 1350,
  NRGRI(0936)= 1350,
  NRGRI(0937)= 1350,
  NRGRI(0938)= 1296,
  NRGRI(0939)= 1296,
  NRGRI(0940)= 1296,
  NRGRI(0941)= 1280,
  NRGRI(0942)= 1280,
  NRGRI(0943)= 1280,
  NRGRI(0944)= 1280,
  NRGRI(0945)= 1280,
  NRGRI(0946)= 1280,
  NRGRI(0947)= 1280,
  NRGRI(0948)= 1280,
  NRGRI(0949)= 1280,
  NRGRI(0950)= 1280,
  NRGRI(0951)= 1280,
  NRGRI(0952)= 1280,
  NRGRI(0953)= 1215,
  NRGRI(0954)= 1215,
  NRGRI(0955)= 1215,
  NRGRI(0956)= 1200,
  NRGRI(0957)= 1200,
  NRGRI(0958)= 1200,
  NRGRI(0959)= 1200,
  NRGRI(0960)= 1200,
  NRGRI(0961)= 1200,
  NRGRI(0962)= 1200,
  NRGRI(0963)= 1200,
  NRGRI(0964)= 1200,
  NRGRI(0965)= 1152,
  NRGRI(0966)= 1152,
  NRGRI(0967)= 1152,
  NRGRI(0968)= 1152,
  NRGRI(0969)= 1152,
  NRGRI(0970)= 1125,
  NRGRI(0971)= 1125,
  NRGRI(0972)= 1125,
  NRGRI(0973)= 1125,
  NRGRI(0974)= 1125,
  NRGRI(0975)= 1125,
  NRGRI(0976)= 1125,
  NRGRI(0977)= 1125,
  NRGRI(0978)= 1080,
  NRGRI(0979)= 1080,
  NRGRI(0980)= 1080,
  NRGRI(0981)= 1080,
  NRGRI(0982)= 1080,
  NRGRI(0983)= 1080,
  NRGRI(0984)= 1080,
  NRGRI(0985)= 1080,
  NRGRI(0986)= 1080,
  NRGRI(0987)= 1024,
  NRGRI(0988)= 1024,
  NRGRI(0989)= 1024,
  NRGRI(0990)= 1024,
  NRGRI(0991)= 1000,
  NRGRI(0992)= 1000,
  NRGRI(0993)= 1000,
  NRGRI(0994)= 1000,
  NRGRI(0995)= 1000,
  NRGRI(0996)=  972,
  NRGRI(0997)=  972,
  NRGRI(0998)=  972,
  NRGRI(0999)=  960,
  NRGRI(1000)=  960,
  NRGRI(1001)=  960,
  NRGRI(1002)=  960,
  NRGRI(1003)=  960,
  NRGRI(1004)=  960,
  NRGRI(1005)=  960,
  NRGRI(1006)=  960,
  NRGRI(1007)=  960,
  NRGRI(1008)=  960,
  NRGRI(1009)=  900,
  NRGRI(1010)=  900,
  NRGRI(1011)=  900,
  NRGRI(1012)=  900,
  NRGRI(1013)=  900,
  NRGRI(1014)=  900,
  NRGRI(1015)=  864,
  NRGRI(1016)=  864,
  NRGRI(1017)=  864,
  NRGRI(1018)=  864,
  NRGRI(1019)=  864,
  NRGRI(1020)=  864,
  NRGRI(1021)=  864,
  NRGRI(1022)=  864,
  NRGRI(1023)=  864,
  NRGRI(1024)=  810,
  NRGRI(1025)=  810,
  NRGRI(1026)=  800,
  NRGRI(1027)=  800,
  NRGRI(1028)=  800,
  NRGRI(1029)=  800,
  NRGRI(1030)=  800,
  NRGRI(1031)=  768,
  NRGRI(1032)=  768,
  NRGRI(1033)=  768,
  NRGRI(1034)=  750,
  NRGRI(1035)=  750,
  NRGRI(1036)=  750,
  NRGRI(1037)=  750,
  NRGRI(1038)=  729,
  NRGRI(1039)=  720,
  NRGRI(1040)=  720,
  NRGRI(1041)=  720,
  NRGRI(1042)=  720,
  NRGRI(1043)=  720,
  NRGRI(1044)=  720,
  NRGRI(1045)=  720,
  NRGRI(1046)=  675,
  NRGRI(1047)=  675,
  NRGRI(1048)=  675,
  NRGRI(1049)=  675,
  NRGRI(1050)=  675,
  NRGRI(1051)=  648,
  NRGRI(1052)=  640,
  NRGRI(1053)=  640,
  NRGRI(1054)=  640,
  NRGRI(1055)=  640,
  NRGRI(1056)=  640,
  NRGRI(1057)=  640,
  NRGRI(1058)=  640,
  NRGRI(1059)=  600,
  NRGRI(1060)=  600,
  NRGRI(1061)=  600,
  NRGRI(1062)=  600,
  NRGRI(1063)=  576,
  NRGRI(1064)=  576,
  NRGRI(1065)=  576,
  NRGRI(1066)=  576,
  NRGRI(1067)=  576,
  NRGRI(1068)=  540,
  NRGRI(1069)=  540,
  NRGRI(1070)=  540,
  NRGRI(1071)=  540,
  NRGRI(1072)=  540,
  NRGRI(1073)=  512,
  NRGRI(1074)=  512,
  NRGRI(1075)=  500,
  NRGRI(1076)=  500,
  NRGRI(1077)=  486,
  NRGRI(1078)=  480,
  NRGRI(1079)=  480,
  NRGRI(1080)=  480,
  NRGRI(1081)=  480,
  NRGRI(1082)=  480,
  NRGRI(1083)=  450,
  NRGRI(1084)=  450,
  NRGRI(1085)=  450,
  NRGRI(1086)=  432,
  NRGRI(1087)=  432,
  NRGRI(1088)=  432,
  NRGRI(1089)=  432,
  NRGRI(1090)=  400,
  NRGRI(1091)=  400,
  NRGRI(1092)=  400,
  NRGRI(1093)=  384,
  NRGRI(1094)=  384,
  NRGRI(1095)=  375,
  NRGRI(1096)=  375,
  NRGRI(1097)=  360,
  NRGRI(1098)=  360,
  NRGRI(1099)=  360,
  NRGRI(1100)=  360,
  NRGRI(1101)=  360,
  NRGRI(1102)=  360,
  NRGRI(1103)=  320,
  NRGRI(1104)=  320,
  NRGRI(1105)=  320,
  NRGRI(1106)=  300,
  NRGRI(1107)=  300,
  NRGRI(1108)=  288,
  NRGRI(1109)=  288,
  NRGRI(1110)=  288,
  NRGRI(1111)=  270,
  NRGRI(1112)=  270,
  NRGRI(1113)=  256,
  NRGRI(1114)=  250,
  NRGRI(1115)=  243,
  NRGRI(1116)=  240,
  NRGRI(1117)=  240,
  NRGRI(1118)=  225,
  NRGRI(1119)=  225,
  NRGRI(1120)=  216,
  NRGRI(1121)=  216,
  NRGRI(1122)=  200,
  NRGRI(1123)=  192,
  NRGRI(1124)=  192,
  NRGRI(1125)=  180,
  NRGRI(1126)=  180,
  NRGRI(1127)=  180,
  NRGRI(1128)=  160,
  NRGRI(1129)=  160,
  NRGRI(1130)=  150,
  NRGRI(1131)=  144,
  NRGRI(1132)=  135,
  NRGRI(1133)=  125,
  NRGRI(1134)=  120,
  NRGRI(1135)=  120,
  NRGRI(1136)=  108,
  NRGRI(1137)=  100,
  NRGRI(1138)=   96,
  NRGRI(1139)=   96,
  NRGRI(1140)=   90,
  NRGRI(1141)=   81,
  NRGRI(1142)=   75,
  NRGRI(1143)=   72,
  NRGRI(1144)=   72,
  NRGRI(1145)=   60,
  NRGRI(1146)=   60,
  NRGRI(1147)=   50,
  NRGRI(1148)=   45,
  NRGRI(1149)=   40,
  NRGRI(1150)=   32,
  NRGRI(1151)=   25,
  NRGRI(1152)=   18,
 /
