 &NAMRGRI
  NRGRI(0001)=   18,
  NRGRI(0002)=   25,
  NRGRI(0003)=   36,
  NRGRI(0004)=   40,
  NRGRI(0005)=   45,
  NRGRI(0006)=   50,
  NRGRI(0007)=   60,
  NRGRI(0008)=   64,
  NRGRI(0009)=   72,
  NRGRI(0010)=   72,
  NRGRI(0011)=   80,
  NRGRI(0012)=   90,
  NRGRI(0013)=   96,
  NRGRI(0014)=  100,
  NRGRI(0015)=  108,
  NRGRI(0016)=  120,
  NRGRI(0017)=  120,
  NRGRI(0018)=  125,
  NRGRI(0019)=  135,
  NRGRI(0020)=  144,
  NRGRI(0021)=  144,
  NRGRI(0022)=  150,
  NRGRI(0023)=  160,
  NRGRI(0024)=  160,
  NRGRI(0025)=  180,
  NRGRI(0026)=  180,
  NRGRI(0027)=  180,
  NRGRI(0028)=  192,
  NRGRI(0029)=  192,
  NRGRI(0030)=  200,
  NRGRI(0031)=  216,
  NRGRI(0032)=  216,
  NRGRI(0033)=  216,
  NRGRI(0034)=  225,
  NRGRI(0035)=  240,
  NRGRI(0036)=  240,
  NRGRI(0037)=  240,
  NRGRI(0038)=  243,
  NRGRI(0039)=  250,
  NRGRI(0040)=  256,
  NRGRI(0041)=  256,
  NRGRI(0042)=  270,
  NRGRI(0043)=  270,
  NRGRI(0044)=  288,
  NRGRI(0045)=  288,
  NRGRI(0046)=  288,
  NRGRI(0047)=  300,
  NRGRI(0048)=  300,
  NRGRI(0049)=  300,
  NRGRI(0050)=  320,
  NRGRI(0051)=  320,
  NRGRI(0052)=  320,
  NRGRI(0053)=  320,
  NRGRI(0054)=  324,
  NRGRI(0055)=  360,
  NRGRI(0056)=  360,
  NRGRI(0057)=  360,
  NRGRI(0058)=  360,
  NRGRI(0059)=  360,
  NRGRI(0060)=  360,
  NRGRI(0061)=  360,
  NRGRI(0062)=  360,
  NRGRI(0063)=  360,
  NRGRI(0064)=  375,
  NRGRI(0065)=  375,
  NRGRI(0066)=  375,
  NRGRI(0067)=  375,
  NRGRI(0068)=  384,
  NRGRI(0069)=  384,
  NRGRI(0070)=  384,
  NRGRI(0071)=  400,
  NRGRI(0072)=  400,
  NRGRI(0073)=  400,
  NRGRI(0074)=  400,
  NRGRI(0075)=  400,
  NRGRI(0076)=  400,
  NRGRI(0077)=  405,
  NRGRI(0078)=  432,
  NRGRI(0079)=  432,
  NRGRI(0080)=  432,
  NRGRI(0081)=  432,
  NRGRI(0082)=  432,
  NRGRI(0083)=  432,
  NRGRI(0084)=  432,
  NRGRI(0085)=  432,
  NRGRI(0086)=  432,
  NRGRI(0087)=  432,
  NRGRI(0088)=  432,
  NRGRI(0089)=  432,
  NRGRI(0090)=  432,
  NRGRI(0091)=  432,
  NRGRI(0092)=  432,
  NRGRI(0093)=  432,
  NRGRI(0094)=  432,
  NRGRI(0095)=  432,
  NRGRI(0096)=  432,
  NRGRI(0097)=  432,
  NRGRI(0098)=  432,
  NRGRI(0099)=  432,
  NRGRI(0100)=  432,
  NRGRI(0101)=  432,
  NRGRI(0102)=  432,
  NRGRI(0103)=  432,
  NRGRI(0104)=  432,
  NRGRI(0105)=  432,
  NRGRI(0106)=  432,
  NRGRI(0107)=  432,
  NRGRI(0108)=  432,
  NRGRI(0109)=  432,
  NRGRI(0110)=  432,
  NRGRI(0111)=  432,
  NRGRI(0112)=  432,
  NRGRI(0113)=  432,
  NRGRI(0114)=  432,
  NRGRI(0115)=  432,
  NRGRI(0116)=  432,
  NRGRI(0117)=  432,
  NRGRI(0118)=  432,
  NRGRI(0119)=  432,
  NRGRI(0120)=  432,
  NRGRI(0121)=  432,
  NRGRI(0122)=  432,
  NRGRI(0123)=  432,
  NRGRI(0124)=  432,
  NRGRI(0125)=  432,
  NRGRI(0126)=  432,
  NRGRI(0127)=  432,
  NRGRI(0128)=  432,
  NRGRI(0129)=  432,
  NRGRI(0130)=  432,
  NRGRI(0131)=  432,
  NRGRI(0132)=  432,
  NRGRI(0133)=  432,
  NRGRI(0134)=  432,
  NRGRI(0135)=  432,
  NRGRI(0136)=  432,
  NRGRI(0137)=  432,
  NRGRI(0138)=  432,
  NRGRI(0139)=  432,
  NRGRI(0140)=  405,
  NRGRI(0141)=  400,
  NRGRI(0142)=  400,
  NRGRI(0143)=  400,
  NRGRI(0144)=  400,
  NRGRI(0145)=  400,
  NRGRI(0146)=  400,
  NRGRI(0147)=  384,
  NRGRI(0148)=  384,
  NRGRI(0149)=  384,
  NRGRI(0150)=  375,
  NRGRI(0151)=  375,
  NRGRI(0152)=  375,
  NRGRI(0153)=  375,
  NRGRI(0154)=  360,
  NRGRI(0155)=  360,
  NRGRI(0156)=  360,
  NRGRI(0157)=  360,
  NRGRI(0158)=  360,
  NRGRI(0159)=  360,
  NRGRI(0160)=  360,
  NRGRI(0161)=  360,
  NRGRI(0162)=  360,
  NRGRI(0163)=  324,
  NRGRI(0164)=  320,
  NRGRI(0165)=  320,
  NRGRI(0166)=  320,
  NRGRI(0167)=  320,
  NRGRI(0168)=  300,
  NRGRI(0169)=  300,
  NRGRI(0170)=  300,
  NRGRI(0171)=  288,
  NRGRI(0172)=  288,
  NRGRI(0173)=  288,
  NRGRI(0174)=  270,
  NRGRI(0175)=  270,
  NRGRI(0176)=  256,
  NRGRI(0177)=  256,
  NRGRI(0178)=  250,
  NRGRI(0179)=  243,
  NRGRI(0180)=  240,
  NRGRI(0181)=  240,
  NRGRI(0182)=  240,
  NRGRI(0183)=  225,
  NRGRI(0184)=  216,
  NRGRI(0185)=  216,
  NRGRI(0186)=  216,
  NRGRI(0187)=  200,
  NRGRI(0188)=  192,
  NRGRI(0189)=  192,
  NRGRI(0190)=  180,
  NRGRI(0191)=  180,
  NRGRI(0192)=  180,
  NRGRI(0193)=  160,
  NRGRI(0194)=  160,
  NRGRI(0195)=  150,
  NRGRI(0196)=  144,
  NRGRI(0197)=  144,
  NRGRI(0198)=  135,
  NRGRI(0199)=  125,
  NRGRI(0200)=  120,
  NRGRI(0201)=  120,
  NRGRI(0202)=  108,
  NRGRI(0203)=  100,
  NRGRI(0204)=   96,
  NRGRI(0205)=   90,
  NRGRI(0206)=   80,
  NRGRI(0207)=   72,
  NRGRI(0208)=   72,
  NRGRI(0209)=   64,
  NRGRI(0210)=   60,
  NRGRI(0211)=   50,
  NRGRI(0212)=   45,
  NRGRI(0213)=   40,
  NRGRI(0214)=   36,
  NRGRI(0215)=   25,
  NRGRI(0216)=   18,
 /
