 &NAMRGRI
  NRGRI(0001)=   18,
  NRGRI(0002)=   25,
  NRGRI(0003)=   32,
  NRGRI(0004)=   40,
  NRGRI(0005)=   45,
  NRGRI(0006)=   50,
  NRGRI(0007)=   54,
  NRGRI(0008)=   60,
  NRGRI(0009)=   72,
  NRGRI(0010)=   72,
  NRGRI(0011)=   75,
  NRGRI(0012)=   80,
  NRGRI(0013)=   90,
  NRGRI(0014)=   90,
  NRGRI(0015)=   96,
  NRGRI(0016)=  100,
  NRGRI(0017)=  108,
  NRGRI(0018)=  120,
  NRGRI(0019)=  120,
  NRGRI(0020)=  120,
  NRGRI(0021)=  125,
  NRGRI(0022)=  135,
  NRGRI(0023)=  144,
  NRGRI(0024)=  150,
  NRGRI(0025)=  160,
  NRGRI(0026)=  160,
  NRGRI(0027)=  180,
  NRGRI(0028)=  180,
  NRGRI(0029)=  180,
  NRGRI(0030)=  192,
  NRGRI(0031)=  192,
  NRGRI(0032)=  200,
  NRGRI(0033)=  216,
  NRGRI(0034)=  216,
  NRGRI(0035)=  225,
  NRGRI(0036)=  225,
  NRGRI(0037)=  240,
  NRGRI(0038)=  240,
  NRGRI(0039)=  243,
  NRGRI(0040)=  250,
  NRGRI(0041)=  256,
  NRGRI(0042)=  270,
  NRGRI(0043)=  270,
  NRGRI(0044)=  288,
  NRGRI(0045)=  288,
  NRGRI(0046)=  288,
  NRGRI(0047)=  300,
  NRGRI(0048)=  300,
  NRGRI(0049)=  320,
  NRGRI(0050)=  320,
  NRGRI(0051)=  320,
  NRGRI(0052)=  360,
  NRGRI(0053)=  360,
  NRGRI(0054)=  360,
  NRGRI(0055)=  360,
  NRGRI(0056)=  360,
  NRGRI(0057)=  360,
  NRGRI(0058)=  375,
  NRGRI(0059)=  375,
  NRGRI(0060)=  384,
  NRGRI(0061)=  384,
  NRGRI(0062)=  400,
  NRGRI(0063)=  400,
  NRGRI(0064)=  405,
  NRGRI(0065)=  432,
  NRGRI(0066)=  432,
  NRGRI(0067)=  432,
  NRGRI(0068)=  432,
  NRGRI(0069)=  450,
  NRGRI(0070)=  450,
  NRGRI(0071)=  450,
  NRGRI(0072)=  480,
  NRGRI(0073)=  480,
  NRGRI(0074)=  480,
  NRGRI(0075)=  480,
  NRGRI(0076)=  480,
  NRGRI(0077)=  486,
  NRGRI(0078)=  500,
  NRGRI(0079)=  500,
  NRGRI(0080)=  512,
  NRGRI(0081)=  512,
  NRGRI(0082)=  540,
  NRGRI(0083)=  540,
  NRGRI(0084)=  540,
  NRGRI(0085)=  540,
  NRGRI(0086)=  576,
  NRGRI(0087)=  576,
  NRGRI(0088)=  576,
  NRGRI(0089)=  576,
  NRGRI(0090)=  576,
  NRGRI(0091)=  576,
  NRGRI(0092)=  600,
  NRGRI(0093)=  600,
  NRGRI(0094)=  600,
  NRGRI(0095)=  600,
  NRGRI(0096)=  640,
  NRGRI(0097)=  640,
  NRGRI(0098)=  640,
  NRGRI(0099)=  640,
  NRGRI(0100)=  640,
  NRGRI(0101)=  640,
  NRGRI(0102)=  648,
  NRGRI(0103)=  675,
  NRGRI(0104)=  675,
  NRGRI(0105)=  675,
  NRGRI(0106)=  675,
  NRGRI(0107)=  675,
  NRGRI(0108)=  720,
  NRGRI(0109)=  720,
  NRGRI(0110)=  720,
  NRGRI(0111)=  720,
  NRGRI(0112)=  720,
  NRGRI(0113)=  720,
  NRGRI(0114)=  720,
  NRGRI(0115)=  729,
  NRGRI(0116)=  750,
  NRGRI(0117)=  750,
  NRGRI(0118)=  750,
  NRGRI(0119)=  750,
  NRGRI(0120)=  768,
  NRGRI(0121)=  768,
  NRGRI(0122)=  800,
  NRGRI(0123)=  800,
  NRGRI(0124)=  800,
  NRGRI(0125)=  800,
  NRGRI(0126)=  800,
  NRGRI(0127)=  800,
  NRGRI(0128)=  810,
  NRGRI(0129)=  864,
  NRGRI(0130)=  864,
  NRGRI(0131)=  864,
  NRGRI(0132)=  864,
  NRGRI(0133)=  864,
  NRGRI(0134)=  864,
  NRGRI(0135)=  864,
  NRGRI(0136)=  864,
  NRGRI(0137)=  864,
  NRGRI(0138)=  900,
  NRGRI(0139)=  900,
  NRGRI(0140)=  900,
  NRGRI(0141)=  900,
  NRGRI(0142)=  900,
  NRGRI(0143)=  900,
  NRGRI(0144)=  960,
  NRGRI(0145)=  960,
  NRGRI(0146)=  960,
  NRGRI(0147)=  960,
  NRGRI(0148)=  960,
  NRGRI(0149)=  960,
  NRGRI(0150)=  960,
  NRGRI(0151)=  960,
  NRGRI(0152)=  960,
  NRGRI(0153)=  972,
  NRGRI(0154)=  972,
  NRGRI(0155)= 1000,
  NRGRI(0156)= 1000,
  NRGRI(0157)= 1000,
  NRGRI(0158)= 1000,
  NRGRI(0159)= 1000,
  NRGRI(0160)= 1024,
  NRGRI(0161)= 1024,
  NRGRI(0162)= 1024,
  NRGRI(0163)= 1024,
  NRGRI(0164)= 1080,
  NRGRI(0165)= 1080,
  NRGRI(0166)= 1080,
  NRGRI(0167)= 1080,
  NRGRI(0168)= 1080,
  NRGRI(0169)= 1080,
  NRGRI(0170)= 1080,
  NRGRI(0171)= 1080,
  NRGRI(0172)= 1080,
  NRGRI(0173)= 1125,
  NRGRI(0174)= 1125,
  NRGRI(0175)= 1125,
  NRGRI(0176)= 1125,
  NRGRI(0177)= 1125,
  NRGRI(0178)= 1125,
  NRGRI(0179)= 1125,
  NRGRI(0180)= 1152,
  NRGRI(0181)= 1152,
  NRGRI(0182)= 1152,
  NRGRI(0183)= 1152,
  NRGRI(0184)= 1152,
  NRGRI(0185)= 1200,
  NRGRI(0186)= 1200,
  NRGRI(0187)= 1200,
  NRGRI(0188)= 1200,
  NRGRI(0189)= 1200,
  NRGRI(0190)= 1200,
  NRGRI(0191)= 1200,
  NRGRI(0192)= 1215,
  NRGRI(0193)= 1215,
  NRGRI(0194)= 1215,
  NRGRI(0195)= 1280,
  NRGRI(0196)= 1280,
  NRGRI(0197)= 1280,
  NRGRI(0198)= 1280,
  NRGRI(0199)= 1280,
  NRGRI(0200)= 1280,
  NRGRI(0201)= 1280,
  NRGRI(0202)= 1280,
  NRGRI(0203)= 1280,
  NRGRI(0204)= 1280,
  NRGRI(0205)= 1280,
  NRGRI(0206)= 1296,
  NRGRI(0207)= 1296,
  NRGRI(0208)= 1350,
  NRGRI(0209)= 1350,
  NRGRI(0210)= 1350,
  NRGRI(0211)= 1350,
  NRGRI(0212)= 1350,
  NRGRI(0213)= 1350,
  NRGRI(0214)= 1350,
  NRGRI(0215)= 1350,
  NRGRI(0216)= 1350,
  NRGRI(0217)= 1440,
  NRGRI(0218)= 1440,
  NRGRI(0219)= 1440,
  NRGRI(0220)= 1440,
  NRGRI(0221)= 1440,
  NRGRI(0222)= 1440,
  NRGRI(0223)= 1440,
  NRGRI(0224)= 1440,
  NRGRI(0225)= 1440,
  NRGRI(0226)= 1440,
  NRGRI(0227)= 1440,
  NRGRI(0228)= 1440,
  NRGRI(0229)= 1440,
  NRGRI(0230)= 1440,
  NRGRI(0231)= 1440,
  NRGRI(0232)= 1458,
  NRGRI(0233)= 1458,
  NRGRI(0234)= 1458,
  NRGRI(0235)= 1500,
  NRGRI(0236)= 1500,
  NRGRI(0237)= 1500,
  NRGRI(0238)= 1500,
  NRGRI(0239)= 1500,
  NRGRI(0240)= 1500,
  NRGRI(0241)= 1500,
  NRGRI(0242)= 1500,
  NRGRI(0243)= 1536,
  NRGRI(0244)= 1536,
  NRGRI(0245)= 1536,
  NRGRI(0246)= 1536,
  NRGRI(0247)= 1536,
  NRGRI(0248)= 1536,
  NRGRI(0249)= 1600,
  NRGRI(0250)= 1600,
  NRGRI(0251)= 1600,
  NRGRI(0252)= 1600,
  NRGRI(0253)= 1600,
  NRGRI(0254)= 1600,
  NRGRI(0255)= 1600,
  NRGRI(0256)= 1600,
  NRGRI(0257)= 1600,
  NRGRI(0258)= 1600,
  NRGRI(0259)= 1600,
  NRGRI(0260)= 1620,
  NRGRI(0261)= 1620,
  NRGRI(0262)= 1620,
  NRGRI(0263)= 1728,
  NRGRI(0264)= 1728,
  NRGRI(0265)= 1728,
  NRGRI(0266)= 1728,
  NRGRI(0267)= 1728,
  NRGRI(0268)= 1728,
  NRGRI(0269)= 1728,
  NRGRI(0270)= 1728,
  NRGRI(0271)= 1728,
  NRGRI(0272)= 1728,
  NRGRI(0273)= 1728,
  NRGRI(0274)= 1728,
  NRGRI(0275)= 1728,
  NRGRI(0276)= 1728,
  NRGRI(0277)= 1728,
  NRGRI(0278)= 1728,
  NRGRI(0279)= 1728,
  NRGRI(0280)= 1728,
  NRGRI(0281)= 1728,
  NRGRI(0282)= 1800,
  NRGRI(0283)= 1800,
  NRGRI(0284)= 1800,
  NRGRI(0285)= 1800,
  NRGRI(0286)= 1800,
  NRGRI(0287)= 1800,
  NRGRI(0288)= 1800,
  NRGRI(0289)= 1800,
  NRGRI(0290)= 1800,
  NRGRI(0291)= 1800,
  NRGRI(0292)= 1800,
  NRGRI(0293)= 1800,
  NRGRI(0294)= 1875,
  NRGRI(0295)= 1875,
  NRGRI(0296)= 1875,
  NRGRI(0297)= 1875,
  NRGRI(0298)= 1875,
  NRGRI(0299)= 1875,
  NRGRI(0300)= 1875,
  NRGRI(0301)= 1875,
  NRGRI(0302)= 1875,
  NRGRI(0303)= 1875,
  NRGRI(0304)= 1875,
  NRGRI(0305)= 1875,
  NRGRI(0306)= 1875,
  NRGRI(0307)= 1920,
  NRGRI(0308)= 1920,
  NRGRI(0309)= 1920,
  NRGRI(0310)= 1920,
  NRGRI(0311)= 1920,
  NRGRI(0312)= 1920,
  NRGRI(0313)= 1920,
  NRGRI(0314)= 1920,
  NRGRI(0315)= 1944,
  NRGRI(0316)= 1944,
  NRGRI(0317)= 1944,
  NRGRI(0318)= 1944,
  NRGRI(0319)= 1944,
  NRGRI(0320)= 2000,
  NRGRI(0321)= 2000,
  NRGRI(0322)= 2000,
  NRGRI(0323)= 2000,
  NRGRI(0324)= 2000,
  NRGRI(0325)= 2000,
  NRGRI(0326)= 2000,
  NRGRI(0327)= 2000,
  NRGRI(0328)= 2000,
  NRGRI(0329)= 2000,
  NRGRI(0330)= 2025,
  NRGRI(0331)= 2025,
  NRGRI(0332)= 2025,
  NRGRI(0333)= 2025,
  NRGRI(0334)= 2048,
  NRGRI(0335)= 2048,
  NRGRI(0336)= 2048,
  NRGRI(0337)= 2048,
  NRGRI(0338)= 2048,
  NRGRI(0339)= 2160,
  NRGRI(0340)= 2160,
  NRGRI(0341)= 2160,
  NRGRI(0342)= 2160,
  NRGRI(0343)= 2160,
  NRGRI(0344)= 2160,
  NRGRI(0345)= 2160,
  NRGRI(0346)= 2160,
  NRGRI(0347)= 2160,
  NRGRI(0348)= 2160,
  NRGRI(0349)= 2160,
  NRGRI(0350)= 2160,
  NRGRI(0351)= 2160,
  NRGRI(0352)= 2160,
  NRGRI(0353)= 2160,
  NRGRI(0354)= 2160,
  NRGRI(0355)= 2160,
  NRGRI(0356)= 2160,
  NRGRI(0357)= 2160,
  NRGRI(0358)= 2160,
  NRGRI(0359)= 2187,
  NRGRI(0360)= 2187,
  NRGRI(0361)= 2187,
  NRGRI(0362)= 2187,
  NRGRI(0363)= 2187,
  NRGRI(0364)= 2250,
  NRGRI(0365)= 2250,
  NRGRI(0366)= 2250,
  NRGRI(0367)= 2250,
  NRGRI(0368)= 2250,
  NRGRI(0369)= 2250,
  NRGRI(0370)= 2250,
  NRGRI(0371)= 2250,
  NRGRI(0372)= 2250,
  NRGRI(0373)= 2250,
  NRGRI(0374)= 2250,
  NRGRI(0375)= 2250,
  NRGRI(0376)= 2304,
  NRGRI(0377)= 2304,
  NRGRI(0378)= 2304,
  NRGRI(0379)= 2304,
  NRGRI(0380)= 2304,
  NRGRI(0381)= 2304,
  NRGRI(0382)= 2304,
  NRGRI(0383)= 2304,
  NRGRI(0384)= 2304,
  NRGRI(0385)= 2304,
  NRGRI(0386)= 2400,
  NRGRI(0387)= 2400,
  NRGRI(0388)= 2400,
  NRGRI(0389)= 2400,
  NRGRI(0390)= 2400,
  NRGRI(0391)= 2400,
  NRGRI(0392)= 2400,
  NRGRI(0393)= 2400,
  NRGRI(0394)= 2400,
  NRGRI(0395)= 2400,
  NRGRI(0396)= 2400,
  NRGRI(0397)= 2400,
  NRGRI(0398)= 2400,
  NRGRI(0399)= 2400,
  NRGRI(0400)= 2400,
  NRGRI(0401)= 2400,
  NRGRI(0402)= 2400,
  NRGRI(0403)= 2400,
  NRGRI(0404)= 2400,
  NRGRI(0405)= 2430,
  NRGRI(0406)= 2430,
  NRGRI(0407)= 2430,
  NRGRI(0408)= 2430,
  NRGRI(0409)= 2430,
  NRGRI(0410)= 2500,
  NRGRI(0411)= 2500,
  NRGRI(0412)= 2500,
  NRGRI(0413)= 2500,
  NRGRI(0414)= 2500,
  NRGRI(0415)= 2500,
  NRGRI(0416)= 2500,
  NRGRI(0417)= 2500,
  NRGRI(0418)= 2500,
  NRGRI(0419)= 2500,
  NRGRI(0420)= 2500,
  NRGRI(0421)= 2500,
  NRGRI(0422)= 2500,
  NRGRI(0423)= 2500,
  NRGRI(0424)= 2500,
  NRGRI(0425)= 2560,
  NRGRI(0426)= 2560,
  NRGRI(0427)= 2560,
  NRGRI(0428)= 2560,
  NRGRI(0429)= 2560,
  NRGRI(0430)= 2560,
  NRGRI(0431)= 2560,
  NRGRI(0432)= 2560,
  NRGRI(0433)= 2560,
  NRGRI(0434)= 2560,
  NRGRI(0435)= 2560,
  NRGRI(0436)= 2560,
  NRGRI(0437)= 2592,
  NRGRI(0438)= 2592,
  NRGRI(0439)= 2592,
  NRGRI(0440)= 2592,
  NRGRI(0441)= 2592,
  NRGRI(0442)= 2592,
  NRGRI(0443)= 2700,
  NRGRI(0444)= 2700,
  NRGRI(0445)= 2700,
  NRGRI(0446)= 2700,
  NRGRI(0447)= 2700,
  NRGRI(0448)= 2700,
  NRGRI(0449)= 2700,
  NRGRI(0450)= 2700,
  NRGRI(0451)= 2700,
  NRGRI(0452)= 2700,
  NRGRI(0453)= 2700,
  NRGRI(0454)= 2700,
  NRGRI(0455)= 2700,
  NRGRI(0456)= 2700,
  NRGRI(0457)= 2700,
  NRGRI(0458)= 2700,
  NRGRI(0459)= 2700,
  NRGRI(0460)= 2700,
  NRGRI(0461)= 2700,
  NRGRI(0462)= 2700,
  NRGRI(0463)= 2700,
  NRGRI(0464)= 2700,
  NRGRI(0465)= 2880,
  NRGRI(0466)= 2880,
  NRGRI(0467)= 2880,
  NRGRI(0468)= 2880,
  NRGRI(0469)= 2880,
  NRGRI(0470)= 2880,
  NRGRI(0471)= 2880,
  NRGRI(0472)= 2880,
  NRGRI(0473)= 2880,
  NRGRI(0474)= 2880,
  NRGRI(0475)= 2880,
  NRGRI(0476)= 2880,
  NRGRI(0477)= 2880,
  NRGRI(0478)= 2880,
  NRGRI(0479)= 2880,
  NRGRI(0480)= 2880,
  NRGRI(0481)= 2880,
  NRGRI(0482)= 2880,
  NRGRI(0483)= 2880,
  NRGRI(0484)= 2880,
  NRGRI(0485)= 2880,
  NRGRI(0486)= 2880,
  NRGRI(0487)= 2880,
  NRGRI(0488)= 2880,
  NRGRI(0489)= 2880,
  NRGRI(0490)= 2880,
  NRGRI(0491)= 2880,
  NRGRI(0492)= 2880,
  NRGRI(0493)= 2880,
  NRGRI(0494)= 2880,
  NRGRI(0495)= 2880,
  NRGRI(0496)= 2880,
  NRGRI(0497)= 2880,
  NRGRI(0498)= 2880,
  NRGRI(0499)= 2880,
  NRGRI(0500)= 2880,
  NRGRI(0501)= 2880,
  NRGRI(0502)= 2880,
  NRGRI(0503)= 2880,
  NRGRI(0504)= 2916,
  NRGRI(0505)= 2916,
  NRGRI(0506)= 2916,
  NRGRI(0507)= 2916,
  NRGRI(0508)= 2916,
  NRGRI(0509)= 2916,
  NRGRI(0510)= 2916,
  NRGRI(0511)= 2916,
  NRGRI(0512)= 3000,
  NRGRI(0513)= 3000,
  NRGRI(0514)= 3000,
  NRGRI(0515)= 3000,
  NRGRI(0516)= 3000,
  NRGRI(0517)= 3000,
  NRGRI(0518)= 3000,
  NRGRI(0519)= 3000,
  NRGRI(0520)= 3000,
  NRGRI(0521)= 3000,
  NRGRI(0522)= 3000,
  NRGRI(0523)= 3000,
  NRGRI(0524)= 3000,
  NRGRI(0525)= 3000,
  NRGRI(0526)= 3000,
  NRGRI(0527)= 3000,
  NRGRI(0528)= 3000,
  NRGRI(0529)= 3000,
  NRGRI(0530)= 3000,
  NRGRI(0531)= 3072,
  NRGRI(0532)= 3072,
  NRGRI(0533)= 3072,
  NRGRI(0534)= 3072,
  NRGRI(0535)= 3072,
  NRGRI(0536)= 3072,
  NRGRI(0537)= 3072,
  NRGRI(0538)= 3072,
  NRGRI(0539)= 3072,
  NRGRI(0540)= 3072,
  NRGRI(0541)= 3072,
  NRGRI(0542)= 3072,
  NRGRI(0543)= 3072,
  NRGRI(0544)= 3072,
  NRGRI(0545)= 3072,
  NRGRI(0546)= 3072,
  NRGRI(0547)= 3072,
  NRGRI(0548)= 3125,
  NRGRI(0549)= 3125,
  NRGRI(0550)= 3125,
  NRGRI(0551)= 3125,
  NRGRI(0552)= 3125,
  NRGRI(0553)= 3125,
  NRGRI(0554)= 3125,
  NRGRI(0555)= 3125,
  NRGRI(0556)= 3125,
  NRGRI(0557)= 3125,
  NRGRI(0558)= 3125,
  NRGRI(0559)= 3125,
  NRGRI(0560)= 3125,
  NRGRI(0561)= 3200,
  NRGRI(0562)= 3200,
  NRGRI(0563)= 3200,
  NRGRI(0564)= 3200,
  NRGRI(0565)= 3200,
  NRGRI(0566)= 3200,
  NRGRI(0567)= 3200,
  NRGRI(0568)= 3200,
  NRGRI(0569)= 3200,
  NRGRI(0570)= 3200,
  NRGRI(0571)= 3200,
  NRGRI(0572)= 3200,
  NRGRI(0573)= 3200,
  NRGRI(0574)= 3200,
  NRGRI(0575)= 3200,
  NRGRI(0576)= 3200,
  NRGRI(0577)= 3200,
  NRGRI(0578)= 3200,
  NRGRI(0579)= 3240,
  NRGRI(0580)= 3240,
  NRGRI(0581)= 3240,
  NRGRI(0582)= 3240,
  NRGRI(0583)= 3240,
  NRGRI(0584)= 3240,
  NRGRI(0585)= 3240,
  NRGRI(0586)= 3240,
  NRGRI(0587)= 3240,
  NRGRI(0588)= 3240,
  NRGRI(0589)= 3375,
  NRGRI(0590)= 3375,
  NRGRI(0591)= 3375,
  NRGRI(0592)= 3375,
  NRGRI(0593)= 3375,
  NRGRI(0594)= 3375,
  NRGRI(0595)= 3375,
  NRGRI(0596)= 3375,
  NRGRI(0597)= 3375,
  NRGRI(0598)= 3375,
  NRGRI(0599)= 3375,
  NRGRI(0600)= 3375,
  NRGRI(0601)= 3375,
  NRGRI(0602)= 3375,
  NRGRI(0603)= 3375,
  NRGRI(0604)= 3375,
  NRGRI(0605)= 3375,
  NRGRI(0606)= 3375,
  NRGRI(0607)= 3375,
  NRGRI(0608)= 3375,
  NRGRI(0609)= 3375,
  NRGRI(0610)= 3375,
  NRGRI(0611)= 3375,
  NRGRI(0612)= 3375,
  NRGRI(0613)= 3375,
  NRGRI(0614)= 3375,
  NRGRI(0615)= 3375,
  NRGRI(0616)= 3375,
  NRGRI(0617)= 3375,
  NRGRI(0618)= 3375,
  NRGRI(0619)= 3375,
  NRGRI(0620)= 3375,
  NRGRI(0621)= 3375,
  NRGRI(0622)= 3375,
  NRGRI(0623)= 3375,
  NRGRI(0624)= 3375,
  NRGRI(0625)= 3456,
  NRGRI(0626)= 3456,
  NRGRI(0627)= 3456,
  NRGRI(0628)= 3456,
  NRGRI(0629)= 3456,
  NRGRI(0630)= 3456,
  NRGRI(0631)= 3456,
  NRGRI(0632)= 3456,
  NRGRI(0633)= 3456,
  NRGRI(0634)= 3456,
  NRGRI(0635)= 3456,
  NRGRI(0636)= 3456,
  NRGRI(0637)= 3456,
  NRGRI(0638)= 3456,
  NRGRI(0639)= 3456,
  NRGRI(0640)= 3456,
  NRGRI(0641)= 3456,
  NRGRI(0642)= 3456,
  NRGRI(0643)= 3456,
  NRGRI(0644)= 3456,
  NRGRI(0645)= 3456,
  NRGRI(0646)= 3456,
  NRGRI(0647)= 3456,
  NRGRI(0648)= 3600,
  NRGRI(0649)= 3600,
  NRGRI(0650)= 3600,
  NRGRI(0651)= 3600,
  NRGRI(0652)= 3600,
  NRGRI(0653)= 3600,
  NRGRI(0654)= 3600,
  NRGRI(0655)= 3600,
  NRGRI(0656)= 3600,
  NRGRI(0657)= 3600,
  NRGRI(0658)= 3600,
  NRGRI(0659)= 3600,
  NRGRI(0660)= 3600,
  NRGRI(0661)= 3600,
  NRGRI(0662)= 3600,
  NRGRI(0663)= 3600,
  NRGRI(0664)= 3600,
  NRGRI(0665)= 3600,
  NRGRI(0666)= 3600,
  NRGRI(0667)= 3600,
  NRGRI(0668)= 3600,
  NRGRI(0669)= 3600,
  NRGRI(0670)= 3600,
  NRGRI(0671)= 3600,
  NRGRI(0672)= 3600,
  NRGRI(0673)= 3600,
  NRGRI(0674)= 3600,
  NRGRI(0675)= 3600,
  NRGRI(0676)= 3600,
  NRGRI(0677)= 3600,
  NRGRI(0678)= 3600,
  NRGRI(0679)= 3600,
  NRGRI(0680)= 3600,
  NRGRI(0681)= 3600,
  NRGRI(0682)= 3600,
  NRGRI(0683)= 3600,
  NRGRI(0684)= 3600,
  NRGRI(0685)= 3600,
  NRGRI(0686)= 3600,
  NRGRI(0687)= 3600,
  NRGRI(0688)= 3600,
  NRGRI(0689)= 3600,
  NRGRI(0690)= 3600,
  NRGRI(0691)= 3600,
  NRGRI(0692)= 3645,
  NRGRI(0693)= 3645,
  NRGRI(0694)= 3645,
  NRGRI(0695)= 3645,
  NRGRI(0696)= 3645,
  NRGRI(0697)= 3645,
  NRGRI(0698)= 3645,
  NRGRI(0699)= 3645,
  NRGRI(0700)= 3645,
  NRGRI(0701)= 3645,
  NRGRI(0702)= 3645,
  NRGRI(0703)= 3645,
  NRGRI(0704)= 3645,
  NRGRI(0705)= 3645,
  NRGRI(0706)= 3645,
  NRGRI(0707)= 3750,
  NRGRI(0708)= 3750,
  NRGRI(0709)= 3750,
  NRGRI(0710)= 3750,
  NRGRI(0711)= 3750,
  NRGRI(0712)= 3750,
  NRGRI(0713)= 3750,
  NRGRI(0714)= 3750,
  NRGRI(0715)= 3750,
  NRGRI(0716)= 3750,
  NRGRI(0717)= 3750,
  NRGRI(0718)= 3750,
  NRGRI(0719)= 3750,
  NRGRI(0720)= 3750,
  NRGRI(0721)= 3750,
  NRGRI(0722)= 3750,
  NRGRI(0723)= 3750,
  NRGRI(0724)= 3750,
  NRGRI(0725)= 3750,
  NRGRI(0726)= 3750,
  NRGRI(0727)= 3750,
  NRGRI(0728)= 3750,
  NRGRI(0729)= 3750,
  NRGRI(0730)= 3750,
  NRGRI(0731)= 3750,
  NRGRI(0732)= 3750,
  NRGRI(0733)= 3750,
  NRGRI(0734)= 3750,
  NRGRI(0735)= 3750,
  NRGRI(0736)= 3750,
  NRGRI(0737)= 3750,
  NRGRI(0738)= 3750,
  NRGRI(0739)= 3750,
  NRGRI(0740)= 3750,
  NRGRI(0741)= 3750,
  NRGRI(0742)= 3750,
  NRGRI(0743)= 3750,
  NRGRI(0744)= 3750,
  NRGRI(0745)= 3750,
  NRGRI(0746)= 3840,
  NRGRI(0747)= 3840,
  NRGRI(0748)= 3840,
  NRGRI(0749)= 3840,
  NRGRI(0750)= 3840,
  NRGRI(0751)= 3840,
  NRGRI(0752)= 3840,
  NRGRI(0753)= 3840,
  NRGRI(0754)= 3840,
  NRGRI(0755)= 3840,
  NRGRI(0756)= 3840,
  NRGRI(0757)= 3840,
  NRGRI(0758)= 3840,
  NRGRI(0759)= 3840,
  NRGRI(0760)= 3840,
  NRGRI(0761)= 3840,
  NRGRI(0762)= 3840,
  NRGRI(0763)= 3840,
  NRGRI(0764)= 3840,
  NRGRI(0765)= 3840,
  NRGRI(0766)= 3840,
  NRGRI(0767)= 3840,
  NRGRI(0768)= 3840,
  NRGRI(0769)= 3840,
  NRGRI(0770)= 3840,
  NRGRI(0771)= 3840,
  NRGRI(0772)= 3840,
  NRGRI(0773)= 3840,
  NRGRI(0774)= 3840,
  NRGRI(0775)= 3840,
  NRGRI(0776)= 3840,
  NRGRI(0777)= 3840,
  NRGRI(0778)= 3840,
  NRGRI(0779)= 3840,
  NRGRI(0780)= 3840,
  NRGRI(0781)= 3840,
  NRGRI(0782)= 3840,
  NRGRI(0783)= 3888,
  NRGRI(0784)= 3888,
  NRGRI(0785)= 3888,
  NRGRI(0786)= 3888,
  NRGRI(0787)= 3888,
  NRGRI(0788)= 3888,
  NRGRI(0789)= 3888,
  NRGRI(0790)= 3888,
  NRGRI(0791)= 3888,
  NRGRI(0792)= 3888,
  NRGRI(0793)= 3888,
  NRGRI(0794)= 3888,
  NRGRI(0795)= 3888,
  NRGRI(0796)= 3888,
  NRGRI(0797)= 3888,
  NRGRI(0798)= 3888,
  NRGRI(0799)= 3888,
  NRGRI(0800)= 3888,
  NRGRI(0801)= 3888,
  NRGRI(0802)= 3888,
  NRGRI(0803)= 3888,
  NRGRI(0804)= 3888,
  NRGRI(0805)= 4000,
  NRGRI(0806)= 4000,
  NRGRI(0807)= 4000,
  NRGRI(0808)= 4000,
  NRGRI(0809)= 4000,
  NRGRI(0810)= 4000,
  NRGRI(0811)= 4000,
  NRGRI(0812)= 4000,
  NRGRI(0813)= 4000,
  NRGRI(0814)= 4000,
  NRGRI(0815)= 4000,
  NRGRI(0816)= 4000,
  NRGRI(0817)= 4000,
  NRGRI(0818)= 4000,
  NRGRI(0819)= 4000,
  NRGRI(0820)= 4000,
  NRGRI(0821)= 4000,
  NRGRI(0822)= 4000,
  NRGRI(0823)= 4000,
  NRGRI(0824)= 4000,
  NRGRI(0825)= 4000,
  NRGRI(0826)= 4000,
  NRGRI(0827)= 4000,
  NRGRI(0828)= 4000,
  NRGRI(0829)= 4000,
  NRGRI(0830)= 4000,
  NRGRI(0831)= 4000,
  NRGRI(0832)= 4000,
  NRGRI(0833)= 4000,
  NRGRI(0834)= 4000,
  NRGRI(0835)= 4000,
  NRGRI(0836)= 4000,
  NRGRI(0837)= 4000,
  NRGRI(0838)= 4000,
  NRGRI(0839)= 4000,
  NRGRI(0840)= 4000,
  NRGRI(0841)= 4000,
  NRGRI(0842)= 4000,
  NRGRI(0843)= 4000,
  NRGRI(0844)= 4000,
  NRGRI(0845)= 4000,
  NRGRI(0846)= 4000,
  NRGRI(0847)= 4000,
  NRGRI(0848)= 4000,
  NRGRI(0849)= 4000,
  NRGRI(0850)= 4000,
  NRGRI(0851)= 4000,
  NRGRI(0852)= 4000,
  NRGRI(0853)= 4000,
  NRGRI(0854)= 4000,
  NRGRI(0855)= 4000,
  NRGRI(0856)= 4000,
  NRGRI(0857)= 4000,
  NRGRI(0858)= 4000,
  NRGRI(0859)= 4000,
  NRGRI(0860)= 4000,
  NRGRI(0861)= 4000,
  NRGRI(0862)= 4000,
  NRGRI(0863)= 4000,
  NRGRI(0864)= 4000,
  NRGRI(0865)= 4000,
  NRGRI(0866)= 4000,
  NRGRI(0867)= 4000,
  NRGRI(0868)= 4000,
  NRGRI(0869)= 4000,
  NRGRI(0870)= 4050,
  NRGRI(0871)= 4050,
  NRGRI(0872)= 4050,
  NRGRI(0873)= 4050,
  NRGRI(0874)= 4050,
  NRGRI(0875)= 4050,
  NRGRI(0876)= 4050,
  NRGRI(0877)= 4050,
  NRGRI(0878)= 4050,
  NRGRI(0879)= 4050,
  NRGRI(0880)= 4050,
  NRGRI(0881)= 4050,
  NRGRI(0882)= 4050,
  NRGRI(0883)= 4050,
  NRGRI(0884)= 4050,
  NRGRI(0885)= 4050,
  NRGRI(0886)= 4050,
  NRGRI(0887)= 4050,
  NRGRI(0888)= 4050,
  NRGRI(0889)= 4050,
  NRGRI(0890)= 4050,
  NRGRI(0891)= 4050,
  NRGRI(0892)= 4050,
  NRGRI(0893)= 4050,
  NRGRI(0894)= 4050,
  NRGRI(0895)= 4050,
  NRGRI(0896)= 4050,
  NRGRI(0897)= 4050,
  NRGRI(0898)= 4050,
  NRGRI(0899)= 4050,
  NRGRI(0900)= 4050,
  NRGRI(0901)= 4050,
  NRGRI(0902)= 4050,
  NRGRI(0903)= 4050,
  NRGRI(0904)= 4050,
  NRGRI(0905)= 4050,
  NRGRI(0906)= 4050,
  NRGRI(0907)= 4050,
  NRGRI(0908)= 4050,
  NRGRI(0909)= 4096,
  NRGRI(0910)= 4096,
  NRGRI(0911)= 4096,
  NRGRI(0912)= 4096,
  NRGRI(0913)= 4096,
  NRGRI(0914)= 4096,
  NRGRI(0915)= 4096,
  NRGRI(0916)= 4096,
  NRGRI(0917)= 4096,
  NRGRI(0918)= 4096,
  NRGRI(0919)= 4096,
  NRGRI(0920)= 4096,
  NRGRI(0921)= 4096,
  NRGRI(0922)= 4096,
  NRGRI(0923)= 4096,
  NRGRI(0924)= 4096,
  NRGRI(0925)= 4096,
  NRGRI(0926)= 4096,
  NRGRI(0927)= 4096,
  NRGRI(0928)= 4096,
  NRGRI(0929)= 4096,
  NRGRI(0930)= 4096,
  NRGRI(0931)= 4096,
  NRGRI(0932)= 4096,
  NRGRI(0933)= 4096,
  NRGRI(0934)= 4096,
  NRGRI(0935)= 4096,
  NRGRI(0936)= 4096,
  NRGRI(0937)= 4096,
  NRGRI(0938)= 4096,
  NRGRI(0939)= 4096,
  NRGRI(0940)= 4096,
  NRGRI(0941)= 4096,
  NRGRI(0942)= 4096,
  NRGRI(0943)= 4096,
  NRGRI(0944)= 4096,
  NRGRI(0945)= 4096,
  NRGRI(0946)= 4096,
  NRGRI(0947)= 4096,
  NRGRI(0948)= 4096,
  NRGRI(0949)= 4096,
  NRGRI(0950)= 4096,
  NRGRI(0951)= 4096,
  NRGRI(0952)= 4096,
  NRGRI(0953)= 4096,
  NRGRI(0954)= 4096,
  NRGRI(0955)= 4096,
  NRGRI(0956)= 4096,
  NRGRI(0957)= 4096,
  NRGRI(0958)= 4096,
  NRGRI(0959)= 4096,
  NRGRI(0960)= 4096,
  NRGRI(0961)= 4096,
  NRGRI(0962)= 4096,
  NRGRI(0963)= 4096,
  NRGRI(0964)= 4096,
  NRGRI(0965)= 4096,
  NRGRI(0966)= 4096,
  NRGRI(0967)= 4096,
  NRGRI(0968)= 4096,
  NRGRI(0969)= 4096,
  NRGRI(0970)= 4096,
  NRGRI(0971)= 4096,
  NRGRI(0972)= 4096,
  NRGRI(0973)= 4096,
  NRGRI(0974)= 4096,
  NRGRI(0975)= 4096,
  NRGRI(0976)= 4096,
  NRGRI(0977)= 4096,
  NRGRI(0978)= 4096,
  NRGRI(0979)= 4096,
  NRGRI(0980)= 4096,
  NRGRI(0981)= 4096,
  NRGRI(0982)= 4096,
  NRGRI(0983)= 4096,
  NRGRI(0984)= 4096,
  NRGRI(0985)= 4096,
  NRGRI(0986)= 4096,
  NRGRI(0987)= 4096,
  NRGRI(0988)= 4096,
  NRGRI(0989)= 4096,
  NRGRI(0990)= 4096,
  NRGRI(0991)= 4096,
  NRGRI(0992)= 4096,
  NRGRI(0993)= 4096,
  NRGRI(0994)= 4096,
  NRGRI(0995)= 4096,
  NRGRI(0996)= 4096,
  NRGRI(0997)= 4096,
  NRGRI(0998)= 4096,
  NRGRI(0999)= 4096,
  NRGRI(1000)= 4096,
  NRGRI(1001)= 4096,
  NRGRI(1002)= 4096,
  NRGRI(1003)= 4096,
  NRGRI(1004)= 4096,
  NRGRI(1005)= 4096,
  NRGRI(1006)= 4096,
  NRGRI(1007)= 4096,
  NRGRI(1008)= 4096,
  NRGRI(1009)= 4096,
  NRGRI(1010)= 4096,
  NRGRI(1011)= 4096,
  NRGRI(1012)= 4096,
  NRGRI(1013)= 4096,
  NRGRI(1014)= 4096,
  NRGRI(1015)= 4096,
  NRGRI(1016)= 4096,
  NRGRI(1017)= 4096,
  NRGRI(1018)= 4096,
  NRGRI(1019)= 4096,
  NRGRI(1020)= 4096,
  NRGRI(1021)= 4096,
  NRGRI(1022)= 4096,
  NRGRI(1023)= 4096,
  NRGRI(1024)= 4096,
  NRGRI(1025)= 4096,
  NRGRI(1026)= 4096,
  NRGRI(1027)= 4096,
  NRGRI(1028)= 4096,
  NRGRI(1029)= 4096,
  NRGRI(1030)= 4096,
  NRGRI(1031)= 4096,
  NRGRI(1032)= 4096,
  NRGRI(1033)= 4096,
  NRGRI(1034)= 4096,
  NRGRI(1035)= 4096,
  NRGRI(1036)= 4096,
  NRGRI(1037)= 4096,
  NRGRI(1038)= 4096,
  NRGRI(1039)= 4096,
  NRGRI(1040)= 4096,
  NRGRI(1041)= 4096,
  NRGRI(1042)= 4096,
  NRGRI(1043)= 4096,
  NRGRI(1044)= 4096,
  NRGRI(1045)= 4096,
  NRGRI(1046)= 4096,
  NRGRI(1047)= 4096,
  NRGRI(1048)= 4096,
  NRGRI(1049)= 4096,
  NRGRI(1050)= 4096,
  NRGRI(1051)= 4096,
  NRGRI(1052)= 4096,
  NRGRI(1053)= 4096,
  NRGRI(1054)= 4096,
  NRGRI(1055)= 4096,
  NRGRI(1056)= 4096,
  NRGRI(1057)= 4096,
  NRGRI(1058)= 4096,
  NRGRI(1059)= 4096,
  NRGRI(1060)= 4096,
  NRGRI(1061)= 4096,
  NRGRI(1062)= 4096,
  NRGRI(1063)= 4096,
  NRGRI(1064)= 4096,
  NRGRI(1065)= 4096,
  NRGRI(1066)= 4096,
  NRGRI(1067)= 4096,
  NRGRI(1068)= 4096,
  NRGRI(1069)= 4096,
  NRGRI(1070)= 4096,
  NRGRI(1071)= 4096,
  NRGRI(1072)= 4096,
  NRGRI(1073)= 4096,
  NRGRI(1074)= 4096,
  NRGRI(1075)= 4096,
  NRGRI(1076)= 4096,
  NRGRI(1077)= 4096,
  NRGRI(1078)= 4096,
  NRGRI(1079)= 4096,
  NRGRI(1080)= 4096,
  NRGRI(1081)= 4096,
  NRGRI(1082)= 4096,
  NRGRI(1083)= 4096,
  NRGRI(1084)= 4096,
  NRGRI(1085)= 4096,
  NRGRI(1086)= 4096,
  NRGRI(1087)= 4096,
  NRGRI(1088)= 4096,
  NRGRI(1089)= 4096,
  NRGRI(1090)= 4096,
  NRGRI(1091)= 4096,
  NRGRI(1092)= 4096,
  NRGRI(1093)= 4096,
  NRGRI(1094)= 4096,
  NRGRI(1095)= 4096,
  NRGRI(1096)= 4096,
  NRGRI(1097)= 4096,
  NRGRI(1098)= 4096,
  NRGRI(1099)= 4096,
  NRGRI(1100)= 4096,
  NRGRI(1101)= 4096,
  NRGRI(1102)= 4096,
  NRGRI(1103)= 4096,
  NRGRI(1104)= 4096,
  NRGRI(1105)= 4096,
  NRGRI(1106)= 4096,
  NRGRI(1107)= 4096,
  NRGRI(1108)= 4096,
  NRGRI(1109)= 4096,
  NRGRI(1110)= 4096,
  NRGRI(1111)= 4096,
  NRGRI(1112)= 4096,
  NRGRI(1113)= 4096,
  NRGRI(1114)= 4096,
  NRGRI(1115)= 4096,
  NRGRI(1116)= 4096,
  NRGRI(1117)= 4096,
  NRGRI(1118)= 4096,
  NRGRI(1119)= 4096,
  NRGRI(1120)= 4096,
  NRGRI(1121)= 4096,
  NRGRI(1122)= 4096,
  NRGRI(1123)= 4096,
  NRGRI(1124)= 4096,
  NRGRI(1125)= 4096,
  NRGRI(1126)= 4096,
  NRGRI(1127)= 4096,
  NRGRI(1128)= 4096,
  NRGRI(1129)= 4096,
  NRGRI(1130)= 4096,
  NRGRI(1131)= 4096,
  NRGRI(1132)= 4096,
  NRGRI(1133)= 4096,
  NRGRI(1134)= 4096,
  NRGRI(1135)= 4096,
  NRGRI(1136)= 4096,
  NRGRI(1137)= 4096,
  NRGRI(1138)= 4096,
  NRGRI(1139)= 4096,
  NRGRI(1140)= 4096,
  NRGRI(1141)= 4050,
  NRGRI(1142)= 4050,
  NRGRI(1143)= 4050,
  NRGRI(1144)= 4050,
  NRGRI(1145)= 4050,
  NRGRI(1146)= 4050,
  NRGRI(1147)= 4050,
  NRGRI(1148)= 4050,
  NRGRI(1149)= 4050,
  NRGRI(1150)= 4050,
  NRGRI(1151)= 4050,
  NRGRI(1152)= 4050,
  NRGRI(1153)= 4050,
  NRGRI(1154)= 4050,
  NRGRI(1155)= 4050,
  NRGRI(1156)= 4050,
  NRGRI(1157)= 4050,
  NRGRI(1158)= 4050,
  NRGRI(1159)= 4050,
  NRGRI(1160)= 4050,
  NRGRI(1161)= 4050,
  NRGRI(1162)= 4050,
  NRGRI(1163)= 4050,
  NRGRI(1164)= 4050,
  NRGRI(1165)= 4050,
  NRGRI(1166)= 4050,
  NRGRI(1167)= 4050,
  NRGRI(1168)= 4050,
  NRGRI(1169)= 4050,
  NRGRI(1170)= 4050,
  NRGRI(1171)= 4050,
  NRGRI(1172)= 4050,
  NRGRI(1173)= 4050,
  NRGRI(1174)= 4050,
  NRGRI(1175)= 4050,
  NRGRI(1176)= 4050,
  NRGRI(1177)= 4050,
  NRGRI(1178)= 4050,
  NRGRI(1179)= 4050,
  NRGRI(1180)= 4000,
  NRGRI(1181)= 4000,
  NRGRI(1182)= 4000,
  NRGRI(1183)= 4000,
  NRGRI(1184)= 4000,
  NRGRI(1185)= 4000,
  NRGRI(1186)= 4000,
  NRGRI(1187)= 4000,
  NRGRI(1188)= 4000,
  NRGRI(1189)= 4000,
  NRGRI(1190)= 4000,
  NRGRI(1191)= 4000,
  NRGRI(1192)= 4000,
  NRGRI(1193)= 4000,
  NRGRI(1194)= 4000,
  NRGRI(1195)= 4000,
  NRGRI(1196)= 4000,
  NRGRI(1197)= 4000,
  NRGRI(1198)= 4000,
  NRGRI(1199)= 4000,
  NRGRI(1200)= 4000,
  NRGRI(1201)= 4000,
  NRGRI(1202)= 4000,
  NRGRI(1203)= 4000,
  NRGRI(1204)= 4000,
  NRGRI(1205)= 4000,
  NRGRI(1206)= 4000,
  NRGRI(1207)= 4000,
  NRGRI(1208)= 4000,
  NRGRI(1209)= 4000,
  NRGRI(1210)= 4000,
  NRGRI(1211)= 4000,
  NRGRI(1212)= 4000,
  NRGRI(1213)= 4000,
  NRGRI(1214)= 4000,
  NRGRI(1215)= 4000,
  NRGRI(1216)= 4000,
  NRGRI(1217)= 4000,
  NRGRI(1218)= 4000,
  NRGRI(1219)= 4000,
  NRGRI(1220)= 4000,
  NRGRI(1221)= 4000,
  NRGRI(1222)= 4000,
  NRGRI(1223)= 4000,
  NRGRI(1224)= 4000,
  NRGRI(1225)= 4000,
  NRGRI(1226)= 4000,
  NRGRI(1227)= 4000,
  NRGRI(1228)= 4000,
  NRGRI(1229)= 4000,
  NRGRI(1230)= 4000,
  NRGRI(1231)= 4000,
  NRGRI(1232)= 4000,
  NRGRI(1233)= 4000,
  NRGRI(1234)= 4000,
  NRGRI(1235)= 4000,
  NRGRI(1236)= 4000,
  NRGRI(1237)= 4000,
  NRGRI(1238)= 4000,
  NRGRI(1239)= 4000,
  NRGRI(1240)= 4000,
  NRGRI(1241)= 4000,
  NRGRI(1242)= 4000,
  NRGRI(1243)= 4000,
  NRGRI(1244)= 4000,
  NRGRI(1245)= 3888,
  NRGRI(1246)= 3888,
  NRGRI(1247)= 3888,
  NRGRI(1248)= 3888,
  NRGRI(1249)= 3888,
  NRGRI(1250)= 3888,
  NRGRI(1251)= 3888,
  NRGRI(1252)= 3888,
  NRGRI(1253)= 3888,
  NRGRI(1254)= 3888,
  NRGRI(1255)= 3888,
  NRGRI(1256)= 3888,
  NRGRI(1257)= 3888,
  NRGRI(1258)= 3888,
  NRGRI(1259)= 3888,
  NRGRI(1260)= 3888,
  NRGRI(1261)= 3888,
  NRGRI(1262)= 3888,
  NRGRI(1263)= 3888,
  NRGRI(1264)= 3888,
  NRGRI(1265)= 3888,
  NRGRI(1266)= 3888,
  NRGRI(1267)= 3840,
  NRGRI(1268)= 3840,
  NRGRI(1269)= 3840,
  NRGRI(1270)= 3840,
  NRGRI(1271)= 3840,
  NRGRI(1272)= 3840,
  NRGRI(1273)= 3840,
  NRGRI(1274)= 3840,
  NRGRI(1275)= 3840,
  NRGRI(1276)= 3840,
  NRGRI(1277)= 3840,
  NRGRI(1278)= 3840,
  NRGRI(1279)= 3840,
  NRGRI(1280)= 3840,
  NRGRI(1281)= 3840,
  NRGRI(1282)= 3840,
  NRGRI(1283)= 3840,
  NRGRI(1284)= 3840,
  NRGRI(1285)= 3840,
  NRGRI(1286)= 3840,
  NRGRI(1287)= 3840,
  NRGRI(1288)= 3840,
  NRGRI(1289)= 3840,
  NRGRI(1290)= 3840,
  NRGRI(1291)= 3840,
  NRGRI(1292)= 3840,
  NRGRI(1293)= 3840,
  NRGRI(1294)= 3840,
  NRGRI(1295)= 3840,
  NRGRI(1296)= 3840,
  NRGRI(1297)= 3840,
  NRGRI(1298)= 3840,
  NRGRI(1299)= 3840,
  NRGRI(1300)= 3840,
  NRGRI(1301)= 3840,
  NRGRI(1302)= 3840,
  NRGRI(1303)= 3840,
  NRGRI(1304)= 3750,
  NRGRI(1305)= 3750,
  NRGRI(1306)= 3750,
  NRGRI(1307)= 3750,
  NRGRI(1308)= 3750,
  NRGRI(1309)= 3750,
  NRGRI(1310)= 3750,
  NRGRI(1311)= 3750,
  NRGRI(1312)= 3750,
  NRGRI(1313)= 3750,
  NRGRI(1314)= 3750,
  NRGRI(1315)= 3750,
  NRGRI(1316)= 3750,
  NRGRI(1317)= 3750,
  NRGRI(1318)= 3750,
  NRGRI(1319)= 3750,
  NRGRI(1320)= 3750,
  NRGRI(1321)= 3750,
  NRGRI(1322)= 3750,
  NRGRI(1323)= 3750,
  NRGRI(1324)= 3750,
  NRGRI(1325)= 3750,
  NRGRI(1326)= 3750,
  NRGRI(1327)= 3750,
  NRGRI(1328)= 3750,
  NRGRI(1329)= 3750,
  NRGRI(1330)= 3750,
  NRGRI(1331)= 3750,
  NRGRI(1332)= 3750,
  NRGRI(1333)= 3750,
  NRGRI(1334)= 3750,
  NRGRI(1335)= 3750,
  NRGRI(1336)= 3750,
  NRGRI(1337)= 3750,
  NRGRI(1338)= 3750,
  NRGRI(1339)= 3750,
  NRGRI(1340)= 3750,
  NRGRI(1341)= 3750,
  NRGRI(1342)= 3750,
  NRGRI(1343)= 3645,
  NRGRI(1344)= 3645,
  NRGRI(1345)= 3645,
  NRGRI(1346)= 3645,
  NRGRI(1347)= 3645,
  NRGRI(1348)= 3645,
  NRGRI(1349)= 3645,
  NRGRI(1350)= 3645,
  NRGRI(1351)= 3645,
  NRGRI(1352)= 3645,
  NRGRI(1353)= 3645,
  NRGRI(1354)= 3645,
  NRGRI(1355)= 3645,
  NRGRI(1356)= 3645,
  NRGRI(1357)= 3645,
  NRGRI(1358)= 3600,
  NRGRI(1359)= 3600,
  NRGRI(1360)= 3600,
  NRGRI(1361)= 3600,
  NRGRI(1362)= 3600,
  NRGRI(1363)= 3600,
  NRGRI(1364)= 3600,
  NRGRI(1365)= 3600,
  NRGRI(1366)= 3600,
  NRGRI(1367)= 3600,
  NRGRI(1368)= 3600,
  NRGRI(1369)= 3600,
  NRGRI(1370)= 3600,
  NRGRI(1371)= 3600,
  NRGRI(1372)= 3600,
  NRGRI(1373)= 3600,
  NRGRI(1374)= 3600,
  NRGRI(1375)= 3600,
  NRGRI(1376)= 3600,
  NRGRI(1377)= 3600,
  NRGRI(1378)= 3600,
  NRGRI(1379)= 3600,
  NRGRI(1380)= 3600,
  NRGRI(1381)= 3600,
  NRGRI(1382)= 3600,
  NRGRI(1383)= 3600,
  NRGRI(1384)= 3600,
  NRGRI(1385)= 3600,
  NRGRI(1386)= 3600,
  NRGRI(1387)= 3600,
  NRGRI(1388)= 3600,
  NRGRI(1389)= 3600,
  NRGRI(1390)= 3600,
  NRGRI(1391)= 3600,
  NRGRI(1392)= 3600,
  NRGRI(1393)= 3600,
  NRGRI(1394)= 3600,
  NRGRI(1395)= 3600,
  NRGRI(1396)= 3600,
  NRGRI(1397)= 3600,
  NRGRI(1398)= 3600,
  NRGRI(1399)= 3600,
  NRGRI(1400)= 3600,
  NRGRI(1401)= 3600,
  NRGRI(1402)= 3456,
  NRGRI(1403)= 3456,
  NRGRI(1404)= 3456,
  NRGRI(1405)= 3456,
  NRGRI(1406)= 3456,
  NRGRI(1407)= 3456,
  NRGRI(1408)= 3456,
  NRGRI(1409)= 3456,
  NRGRI(1410)= 3456,
  NRGRI(1411)= 3456,
  NRGRI(1412)= 3456,
  NRGRI(1413)= 3456,
  NRGRI(1414)= 3456,
  NRGRI(1415)= 3456,
  NRGRI(1416)= 3456,
  NRGRI(1417)= 3456,
  NRGRI(1418)= 3456,
  NRGRI(1419)= 3456,
  NRGRI(1420)= 3456,
  NRGRI(1421)= 3456,
  NRGRI(1422)= 3456,
  NRGRI(1423)= 3456,
  NRGRI(1424)= 3456,
  NRGRI(1425)= 3375,
  NRGRI(1426)= 3375,
  NRGRI(1427)= 3375,
  NRGRI(1428)= 3375,