 &NAMRGRI
  NRGRI(1)= 18,
  NRGRI(2)= 25,
  NRGRI(3)= 36,
  NRGRI(4)= 40,
  NRGRI(5)= 45,
  NRGRI(6)= 50,
  NRGRI(7)= 60,
  NRGRI(8)= 64,
  NRGRI(9)= 72,
  NRGRI(10)= 72,
  NRGRI(11)= 80,
  NRGRI(12)= 90,
  NRGRI(13)= 90,
  NRGRI(14)= 96,
  NRGRI(15)=108,
  NRGRI(16)=120,
  NRGRI(17)=120,
  NRGRI(18)=125,
  NRGRI(19)=128,
  NRGRI(20)=135,
  NRGRI(21)=144,
  NRGRI(22)=150,
  NRGRI(23)=160,
  NRGRI(24)=160,
  NRGRI(25)=180,
  NRGRI(26)=180,
  NRGRI(27)=180,
  NRGRI(28)=192,
  NRGRI(29)=192,
  NRGRI(30)=200,
  NRGRI(31)=216,
  NRGRI(32)=216,
  NRGRI(33)=225,
  NRGRI(34)=225,
  NRGRI(35)=240,
  NRGRI(36)=240,
  NRGRI(37)=243,
  NRGRI(38)=250,
  NRGRI(39)=256,
  NRGRI(40)=270,
  NRGRI(41)=270,
  NRGRI(42)=288,
  NRGRI(43)=288,
  NRGRI(44)=288,
  NRGRI(45)=300,
  NRGRI(46)=300,
  NRGRI(47)=320,
  NRGRI(48)=320,
  NRGRI(49)=320,
  NRGRI(50)=320,
  NRGRI(51)=324,
  NRGRI(52)=360,
  NRGRI(53)=360,
  NRGRI(54)=360,
  NRGRI(55)=360,
  NRGRI(56)=360,
  NRGRI(57)=360,
  NRGRI(58)=375,
  NRGRI(59)=375,
  NRGRI(60)=375,
  NRGRI(61)=384,
  NRGRI(62)=384,
  NRGRI(63)=400,
  NRGRI(64)=400,
  NRGRI(65)=400,
  NRGRI(66)=405,
  NRGRI(67)=432,
  NRGRI(68)=432,
  NRGRI(69)=432,
  NRGRI(70)=432,
  NRGRI(71)=432,
  NRGRI(72)=450,
  NRGRI(73)=450,
  NRGRI(74)=450,
  NRGRI(75)=450,
  NRGRI(76)=480,
  NRGRI(77)=480,
  NRGRI(78)=480,
  NRGRI(79)=480,
  NRGRI(80)=480,
  NRGRI(81)=480,
  NRGRI(82)=480,
  NRGRI(83)=500,
  NRGRI(84)=500,
  NRGRI(85)=500,
  NRGRI(86)=500,
  NRGRI(87)=500,
  NRGRI(88)=512,
  NRGRI(89)=512,
  NRGRI(90)=540,
  NRGRI(91)=540,
  NRGRI(92)=540,
  NRGRI(93)=540,
  NRGRI(94)=540,
  NRGRI(95)=540,
  NRGRI(96)=540,
  NRGRI(97)=540,
  NRGRI(98)=576,
  NRGRI(99)=576,
  NRGRI(100)=576,
  NRGRI(101)=576,
  NRGRI(102)=576,
  NRGRI(103)=576,
  NRGRI(104)=576,
  NRGRI(105)=576,
  NRGRI(106)=576,
  NRGRI(107)=576,
  NRGRI(108)=600,
  NRGRI(109)=600,
  NRGRI(110)=600,
  NRGRI(111)=600,
  NRGRI(112)=600,
  NRGRI(113)=600,
  NRGRI(114)=600,
  NRGRI(115)=600,
  NRGRI(116)=600,
  NRGRI(117)=640,
  NRGRI(118)=640,
  NRGRI(119)=640,
  NRGRI(120)=640,
  NRGRI(121)=640,
  NRGRI(122)=640,
  NRGRI(123)=640,
  NRGRI(124)=640,
  NRGRI(125)=640,
  NRGRI(126)=640,
  NRGRI(127)=640,
  NRGRI(128)=640,
  NRGRI(129)=640,
  NRGRI(130)=640,
  NRGRI(131)=640,
  NRGRI(132)=640,
  NRGRI(133)=640,
  NRGRI(134)=640,
  NRGRI(135)=640,
  NRGRI(136)=640,
  NRGRI(137)=640,
  NRGRI(138)=640,
  NRGRI(139)=640,
  NRGRI(140)=640,
  NRGRI(141)=640,
  NRGRI(142)=640,
  NRGRI(143)=640,
  NRGRI(144)=640,
  NRGRI(145)=640,
  NRGRI(146)=640,
  NRGRI(147)=640,
  NRGRI(148)=640,
  NRGRI(149)=640,
  NRGRI(150)=640,
  NRGRI(151)=640,
  NRGRI(152)=640,
  NRGRI(153)=640,
  NRGRI(154)=640,
  NRGRI(155)=640,
  NRGRI(156)=640,
  NRGRI(157)=640,
  NRGRI(158)=640,
  NRGRI(159)=640,
  NRGRI(160)=640,
  NRGRI(161)=640,
  NRGRI(162)=640,
  NRGRI(163)=640,
  NRGRI(164)=640,
  NRGRI(165)=640,
  NRGRI(166)=640,
  NRGRI(167)=640,
  NRGRI(168)=640,
  NRGRI(169)=640,
  NRGRI(170)=640,
  NRGRI(171)=640,
  NRGRI(172)=640,
  NRGRI(173)=640,
  NRGRI(174)=640,
  NRGRI(175)=640,
  NRGRI(176)=640,
  NRGRI(177)=640,
  NRGRI(178)=640,
  NRGRI(179)=640,
  NRGRI(180)=640,
  NRGRI(181)=640,
  NRGRI(182)=640,
  NRGRI(183)=640,
  NRGRI(184)=640,
  NRGRI(185)=640,
  NRGRI(186)=640,
  NRGRI(187)=640,
  NRGRI(188)=640,
  NRGRI(189)=640,
  NRGRI(190)=640,
  NRGRI(191)=640,
  NRGRI(192)=640,
  NRGRI(193)=640,
  NRGRI(194)=640,
  NRGRI(195)=640,
  NRGRI(196)=640,
  NRGRI(197)=640,
  NRGRI(198)=640,
  NRGRI(199)=640,
  NRGRI(200)=640,
  NRGRI(201)=640,
  NRGRI(202)=640,
  NRGRI(203)=640,
  NRGRI(204)=640,
  NRGRI(205)=600,
  NRGRI(206)=600,
  NRGRI(207)=600,
  NRGRI(208)=600,
  NRGRI(209)=600,
  NRGRI(210)=600,
  NRGRI(211)=600,
  NRGRI(212)=600,
  NRGRI(213)=600,
  NRGRI(214)=576,
  NRGRI(215)=576,
  NRGRI(216)=576,
  NRGRI(217)=576,
  NRGRI(218)=576,
  NRGRI(219)=576,
  NRGRI(220)=576,
  NRGRI(221)=576,
  NRGRI(222)=576,
  NRGRI(223)=576,
  NRGRI(224)=540,
  NRGRI(225)=540,
  NRGRI(226)=540,
  NRGRI(227)=540,
  NRGRI(228)=540,
  NRGRI(229)=540,
  NRGRI(230)=540,
  NRGRI(231)=540,
  NRGRI(232)=512,
  NRGRI(233)=512,
  NRGRI(234)=500,
  NRGRI(235)=500,
  NRGRI(236)=500,
  NRGRI(237)=500,
  NRGRI(238)=500,
  NRGRI(239)=480,
  NRGRI(240)=480,
  NRGRI(241)=480,
  NRGRI(242)=480,
  NRGRI(243)=480,
  NRGRI(244)=480,
  NRGRI(245)=480,
  NRGRI(246)=450,
  NRGRI(247)=450,
  NRGRI(248)=450,
  NRGRI(249)=450,
  NRGRI(250)=432,
  NRGRI(251)=432,
  NRGRI(252)=432,
  NRGRI(253)=432,
  NRGRI(254)=432,
  NRGRI(255)=405,
  NRGRI(256)=400,
  NRGRI(257)=400,
  NRGRI(258)=400,
  NRGRI(259)=384,
  NRGRI(260)=384,
  NRGRI(261)=375,
  NRGRI(262)=375,
  NRGRI(263)=375,
  NRGRI(264)=360,
  NRGRI(265)=360,
  NRGRI(266)=360,
  NRGRI(267)=360,
  NRGRI(268)=360,
  NRGRI(269)=360,
  NRGRI(270)=324,
  NRGRI(271)=320,
  NRGRI(272)=320,
  NRGRI(273)=320,
  NRGRI(274)=320,
  NRGRI(275)=300,
  NRGRI(276)=300,
  NRGRI(277)=288,
  NRGRI(278)=288,
  NRGRI(279)=288,
  NRGRI(280)=270,
  NRGRI(281)=270,
  NRGRI(282)=256,
  NRGRI(283)=250,
  NRGRI(284)=243,
  NRGRI(285)=240,
  NRGRI(286)=240,
  NRGRI(287)=225,
  NRGRI(288)=225,
  NRGRI(289)=216,
  NRGRI(290)=216,
  NRGRI(291)=200,
  NRGRI(292)=192,
  NRGRI(293)=192,
  NRGRI(294)=180,
  NRGRI(295)=180,
  NRGRI(296)=180,
  NRGRI(297)=160,
  NRGRI(298)=160,
  NRGRI(299)=150,
  NRGRI(300)=144,
  NRGRI(301)=135,
  NRGRI(302)=128,
  NRGRI(303)=125,
  NRGRI(304)=120,
  NRGRI(305)=120,
  NRGRI(306)=108,
  NRGRI(307)= 96,
  NRGRI(308)= 90,
  NRGRI(309)= 90,
  NRGRI(310)= 80,
  NRGRI(311)= 72,
  NRGRI(312)= 72,
  NRGRI(313)= 64,
  NRGRI(314)= 60,
  NRGRI(315)= 50,
  NRGRI(316)= 45,
  NRGRI(317)= 40,
  NRGRI(318)= 36,
  NRGRI(319)= 25,
  NRGRI(320)= 18,
 /
