 &NAMRGRI
  NRGRI(0001)=   18,
  NRGRI(0002)=   25,
  NRGRI(0003)=   32,
  NRGRI(0004)=   40,
  NRGRI(0005)=   45,
  NRGRI(0006)=   50,
  NRGRI(0007)=   60,
  NRGRI(0008)=   60,
  NRGRI(0009)=   72,
  NRGRI(0010)=   72,
  NRGRI(0011)=   75,
  NRGRI(0012)=   81,
  NRGRI(0013)=   90,
  NRGRI(0014)=   90,
  NRGRI(0015)=   96,
  NRGRI(0016)=  100,
  NRGRI(0017)=  108,
  NRGRI(0018)=  120,
  NRGRI(0019)=  120,
  NRGRI(0020)=  125,
  NRGRI(0021)=  135,
  NRGRI(0022)=  144,
  NRGRI(0023)=  150,
  NRGRI(0024)=  160,
  NRGRI(0025)=  160,
  NRGRI(0026)=  180,
  NRGRI(0027)=  180,
  NRGRI(0028)=  180,
  NRGRI(0029)=  192,
  NRGRI(0030)=  192,
  NRGRI(0031)=  200,
  NRGRI(0032)=  216,
  NRGRI(0033)=  216,
  NRGRI(0034)=  216,
  NRGRI(0035)=  225,
  NRGRI(0036)=  240,
  NRGRI(0037)=  240,
  NRGRI(0038)=  243,
  NRGRI(0039)=  250,
  NRGRI(0040)=  256,
  NRGRI(0041)=  270,
  NRGRI(0042)=  270,
  NRGRI(0043)=  288,
  NRGRI(0044)=  288,
  NRGRI(0045)=  288,
  NRGRI(0046)=  300,
  NRGRI(0047)=  300,
  NRGRI(0048)=  320,
  NRGRI(0049)=  320,
  NRGRI(0050)=  320,
  NRGRI(0051)=  360,
  NRGRI(0052)=  360,
  NRGRI(0053)=  360,
  NRGRI(0054)=  360,
  NRGRI(0055)=  360,
  NRGRI(0056)=  360,
  NRGRI(0057)=  375,
  NRGRI(0058)=  375,
  NRGRI(0059)=  384,
  NRGRI(0060)=  384,
  NRGRI(0061)=  400,
  NRGRI(0062)=  400,
  NRGRI(0063)=  400,
  NRGRI(0064)=  432,
  NRGRI(0065)=  432,
  NRGRI(0066)=  432,
  NRGRI(0067)=  432,
  NRGRI(0068)=  450,
  NRGRI(0069)=  450,
  NRGRI(0070)=  450,
  NRGRI(0071)=  480,
  NRGRI(0072)=  480,
  NRGRI(0073)=  480,
  NRGRI(0074)=  480,
  NRGRI(0075)=  480,
  NRGRI(0076)=  486,
  NRGRI(0077)=  500,
  NRGRI(0078)=  500,
  NRGRI(0079)=  512,
  NRGRI(0080)=  512,
  NRGRI(0081)=  540,
  NRGRI(0082)=  540,
  NRGRI(0083)=  540,
  NRGRI(0084)=  540,
  NRGRI(0085)=  540,
  NRGRI(0086)=  576,
  NRGRI(0087)=  576,
  NRGRI(0088)=  576,
  NRGRI(0089)=  576,
  NRGRI(0090)=  576,
  NRGRI(0091)=  600,
  NRGRI(0092)=  600,
  NRGRI(0093)=  600,
  NRGRI(0094)=  600,
  NRGRI(0095)=  640,
  NRGRI(0096)=  640,
  NRGRI(0097)=  640,
  NRGRI(0098)=  640,
  NRGRI(0099)=  640,
  NRGRI(0100)=  640,
  NRGRI(0101)=  640,
  NRGRI(0102)=  648,
  NRGRI(0103)=  675,
  NRGRI(0104)=  675,
  NRGRI(0105)=  675,
  NRGRI(0106)=  675,
  NRGRI(0107)=  720,
  NRGRI(0108)=  720,
  NRGRI(0109)=  720,
  NRGRI(0110)=  720,
  NRGRI(0111)=  720,
  NRGRI(0112)=  720,
  NRGRI(0113)=  720,
  NRGRI(0114)=  720,
  NRGRI(0115)=  729,
  NRGRI(0116)=  750,
  NRGRI(0117)=  750,
  NRGRI(0118)=  750,
  NRGRI(0119)=  750,
  NRGRI(0120)=  768,
  NRGRI(0121)=  768,
  NRGRI(0122)=  768,
  NRGRI(0123)=  800,
  NRGRI(0124)=  800,
  NRGRI(0125)=  800,
  NRGRI(0126)=  800,
  NRGRI(0127)=  800,
  NRGRI(0128)=  810,
  NRGRI(0129)=  810,
  NRGRI(0130)=  864,
  NRGRI(0131)=  864,
  NRGRI(0132)=  864,
  NRGRI(0133)=  864,
  NRGRI(0134)=  864,
  NRGRI(0135)=  864,
  NRGRI(0136)=  864,
  NRGRI(0137)=  864,
  NRGRI(0138)=  900,
  NRGRI(0139)=  900,
  NRGRI(0140)=  900,
  NRGRI(0141)=  900,
  NRGRI(0142)=  900,
  NRGRI(0143)=  900,
  NRGRI(0144)=  960,
  NRGRI(0145)=  960,
  NRGRI(0146)=  960,
  NRGRI(0147)=  960,
  NRGRI(0148)=  960,
  NRGRI(0149)=  960,
  NRGRI(0150)=  960,
  NRGRI(0151)=  960,
  NRGRI(0152)=  960,
  NRGRI(0153)=  960,
  NRGRI(0154)=  960,
  NRGRI(0155)=  972,
  NRGRI(0156)=  972,
  NRGRI(0157)= 1000,
  NRGRI(0158)= 1000,
  NRGRI(0159)= 1000,
  NRGRI(0160)= 1000,
  NRGRI(0161)= 1000,
  NRGRI(0162)= 1024,
  NRGRI(0163)= 1024,
  NRGRI(0164)= 1024,
  NRGRI(0165)= 1024,
  NRGRI(0166)= 1080,
  NRGRI(0167)= 1080,
  NRGRI(0168)= 1080,
  NRGRI(0169)= 1080,
  NRGRI(0170)= 1080,
  NRGRI(0171)= 1080,
  NRGRI(0172)= 1080,
  NRGRI(0173)= 1080,
  NRGRI(0174)= 1080,
  NRGRI(0175)= 1125,
  NRGRI(0176)= 1125,
  NRGRI(0177)= 1125,
  NRGRI(0178)= 1125,
  NRGRI(0179)= 1125,
  NRGRI(0180)= 1125,
  NRGRI(0181)= 1125,
  NRGRI(0182)= 1125,
  NRGRI(0183)= 1152,
  NRGRI(0184)= 1152,
  NRGRI(0185)= 1152,
  NRGRI(0186)= 1152,
  NRGRI(0187)= 1152,
  NRGRI(0188)= 1200,
  NRGRI(0189)= 1200,
  NRGRI(0190)= 1200,
  NRGRI(0191)= 1200,
  NRGRI(0192)= 1200,
  NRGRI(0193)= 1200,
  NRGRI(0194)= 1200,
  NRGRI(0195)= 1200,
  NRGRI(0196)= 1215,
  NRGRI(0197)= 1215,
  NRGRI(0198)= 1215,
  NRGRI(0199)= 1280,
  NRGRI(0200)= 1280,
  NRGRI(0201)= 1280,
  NRGRI(0202)= 1280,
  NRGRI(0203)= 1280,
  NRGRI(0204)= 1280,
  NRGRI(0205)= 1280,
  NRGRI(0206)= 1280,
  NRGRI(0207)= 1280,
  NRGRI(0208)= 1280,
  NRGRI(0209)= 1280,
  NRGRI(0210)= 1280,
  NRGRI(0211)= 1296,
  NRGRI(0212)= 1296,
  NRGRI(0213)= 1350,
  NRGRI(0214)= 1350,
  NRGRI(0215)= 1350,
  NRGRI(0216)= 1350,
  NRGRI(0217)= 1350,
  NRGRI(0218)= 1350,
  NRGRI(0219)= 1350,
  NRGRI(0220)= 1350,
  NRGRI(0221)= 1350,
  NRGRI(0222)= 1350,
  NRGRI(0223)= 1440,
  NRGRI(0224)= 1440,
  NRGRI(0225)= 1440,
  NRGRI(0226)= 1440,
  NRGRI(0227)= 1440,
  NRGRI(0228)= 1440,
  NRGRI(0229)= 1440,
  NRGRI(0230)= 1440,
  NRGRI(0231)= 1440,
  NRGRI(0232)= 1440,
  NRGRI(0233)= 1440,
  NRGRI(0234)= 1440,
  NRGRI(0235)= 1440,
  NRGRI(0236)= 1440,
  NRGRI(0237)= 1440,
  NRGRI(0238)= 1440,
  NRGRI(0239)= 1440,
  NRGRI(0240)= 1458,
  NRGRI(0241)= 1458,
  NRGRI(0242)= 1458,
  NRGRI(0243)= 1458,
  NRGRI(0244)= 1500,
  NRGRI(0245)= 1500,
  NRGRI(0246)= 1500,
  NRGRI(0247)= 1500,
  NRGRI(0248)= 1500,
  NRGRI(0249)= 1500,
  NRGRI(0250)= 1500,
  NRGRI(0251)= 1500,
  NRGRI(0252)= 1536,
  NRGRI(0253)= 1536,
  NRGRI(0254)= 1536,
  NRGRI(0255)= 1536,
  NRGRI(0256)= 1536,
  NRGRI(0257)= 1536,
  NRGRI(0258)= 1536,
  NRGRI(0259)= 1600,
  NRGRI(0260)= 1600,
  NRGRI(0261)= 1600,
  NRGRI(0262)= 1600,
  NRGRI(0263)= 1600,
  NRGRI(0264)= 1600,
  NRGRI(0265)= 1600,
  NRGRI(0266)= 1600,
  NRGRI(0267)= 1600,
  NRGRI(0268)= 1600,
  NRGRI(0269)= 1600,
  NRGRI(0270)= 1600,
  NRGRI(0271)= 1600,
  NRGRI(0272)= 1620,
  NRGRI(0273)= 1620,
  NRGRI(0274)= 1620,
  NRGRI(0275)= 1728,
  NRGRI(0276)= 1728,
  NRGRI(0277)= 1728,
  NRGRI(0278)= 1728,
  NRGRI(0279)= 1728,
  NRGRI(0280)= 1728,
  NRGRI(0281)= 1728,
  NRGRI(0282)= 1728,
  NRGRI(0283)= 1728,
  NRGRI(0284)= 1728,
  NRGRI(0285)= 1728,
  NRGRI(0286)= 1728,
  NRGRI(0287)= 1728,
  NRGRI(0288)= 1728,
  NRGRI(0289)= 1728,
  NRGRI(0290)= 1728,
  NRGRI(0291)= 1728,
  NRGRI(0292)= 1728,
  NRGRI(0293)= 1728,
  NRGRI(0294)= 1728,
  NRGRI(0295)= 1728,
  NRGRI(0296)= 1728,
  NRGRI(0297)= 1728,
  NRGRI(0298)= 1800,
  NRGRI(0299)= 1800,
  NRGRI(0300)= 1800,
  NRGRI(0301)= 1800,
  NRGRI(0302)= 1800,
  NRGRI(0303)= 1800,
  NRGRI(0304)= 1800,
  NRGRI(0305)= 1800,
  NRGRI(0306)= 1800,
  NRGRI(0307)= 1800,
  NRGRI(0308)= 1800,
  NRGRI(0309)= 1800,
  NRGRI(0310)= 1800,
  NRGRI(0311)= 1800,
  NRGRI(0312)= 1800,
  NRGRI(0313)= 1875,
  NRGRI(0314)= 1875,
  NRGRI(0315)= 1875,
  NRGRI(0316)= 1875,
  NRGRI(0317)= 1875,
  NRGRI(0318)= 1875,
  NRGRI(0319)= 1875,
  NRGRI(0320)= 1875,
  NRGRI(0321)= 1875,
  NRGRI(0322)= 1875,
  NRGRI(0323)= 1875,
  NRGRI(0324)= 1875,
  NRGRI(0325)= 1875,
  NRGRI(0326)= 1875,
  NRGRI(0327)= 1875,
  NRGRI(0328)= 1875,
  NRGRI(0329)= 1875,
  NRGRI(0330)= 1920,
  NRGRI(0331)= 1920,
  NRGRI(0332)= 1920,
  NRGRI(0333)= 1920,
  NRGRI(0334)= 1920,
  NRGRI(0335)= 1920,
  NRGRI(0336)= 1920,
  NRGRI(0337)= 1920,
  NRGRI(0338)= 1920,
  NRGRI(0339)= 1920,
  NRGRI(0340)= 1920,
  NRGRI(0341)= 1944,
  NRGRI(0342)= 1944,
  NRGRI(0343)= 1944,
  NRGRI(0344)= 1944,
  NRGRI(0345)= 1944,
  NRGRI(0346)= 2000,
  NRGRI(0347)= 2000,
  NRGRI(0348)= 2000,
  NRGRI(0349)= 2000,
  NRGRI(0350)= 2000,
  NRGRI(0351)= 2000,
  NRGRI(0352)= 2000,
  NRGRI(0353)= 2000,
  NRGRI(0354)= 2000,
  NRGRI(0355)= 2000,
  NRGRI(0356)= 2000,
  NRGRI(0357)= 2000,
  NRGRI(0358)= 2000,
  NRGRI(0359)= 2000,
  NRGRI(0360)= 2025,
  NRGRI(0361)= 2025,
  NRGRI(0362)= 2025,
  NRGRI(0363)= 2025,
  NRGRI(0364)= 2025,
  NRGRI(0365)= 2025,
  NRGRI(0366)= 2048,
  NRGRI(0367)= 2048,
  NRGRI(0368)= 2048,
  NRGRI(0369)= 2048,
  NRGRI(0370)= 2048,
  NRGRI(0371)= 2048,
  NRGRI(0372)= 2048,
  NRGRI(0373)= 2160,
  NRGRI(0374)= 2160,
  NRGRI(0375)= 2160,
  NRGRI(0376)= 2160,
  NRGRI(0377)= 2160,
  NRGRI(0378)= 2160,
  NRGRI(0379)= 2160,
  NRGRI(0380)= 2160,
  NRGRI(0381)= 2160,
  NRGRI(0382)= 2160,
  NRGRI(0383)= 2160,
  NRGRI(0384)= 2160,
  NRGRI(0385)= 2160,
  NRGRI(0386)= 2160,
  NRGRI(0387)= 2160,
  NRGRI(0388)= 2160,
  NRGRI(0389)= 2160,
  NRGRI(0390)= 2160,
  NRGRI(0391)= 2160,
  NRGRI(0392)= 2160,
  NRGRI(0393)= 2160,
  NRGRI(0394)= 2160,
  NRGRI(0395)= 2160,
  NRGRI(0396)= 2160,
  NRGRI(0397)= 2160,
  NRGRI(0398)= 2160,
  NRGRI(0399)= 2160,
  NRGRI(0400)= 2160,
  NRGRI(0401)= 2160,
  NRGRI(0402)= 2160,
  NRGRI(0403)= 2187,
  NRGRI(0404)= 2187,
  NRGRI(0405)= 2187,
  NRGRI(0406)= 2187,
  NRGRI(0407)= 2187,
  NRGRI(0408)= 2187,
  NRGRI(0409)= 2187,
  NRGRI(0410)= 2187,
  NRGRI(0411)= 2250,
  NRGRI(0412)= 2250,
  NRGRI(0413)= 2250,
  NRGRI(0414)= 2250,
  NRGRI(0415)= 2250,
  NRGRI(0416)= 2250,
  NRGRI(0417)= 2250,
  NRGRI(0418)= 2250,
  NRGRI(0419)= 2250,
  NRGRI(0420)= 2250,
  NRGRI(0421)= 2250,
  NRGRI(0422)= 2250,
  NRGRI(0423)= 2250,
  NRGRI(0424)= 2250,
  NRGRI(0425)= 2250,
  NRGRI(0426)= 2250,
  NRGRI(0427)= 2250,
  NRGRI(0428)= 2250,
  NRGRI(0429)= 2250,
  NRGRI(0430)= 2250,
  NRGRI(0431)= 2304,
  NRGRI(0432)= 2304,
  NRGRI(0433)= 2304,
  NRGRI(0434)= 2304,
  NRGRI(0435)= 2304,
  NRGRI(0436)= 2304,
  NRGRI(0437)= 2304,
  NRGRI(0438)= 2304,
  NRGRI(0439)= 2304,
  NRGRI(0440)= 2304,
  NRGRI(0441)= 2304,
  NRGRI(0442)= 2304,
  NRGRI(0443)= 2304,
  NRGRI(0444)= 2304,
  NRGRI(0445)= 2304,
  NRGRI(0446)= 2304,
  NRGRI(0447)= 2304,
  NRGRI(0448)= 2304,
  NRGRI(0449)= 2400,
  NRGRI(0450)= 2400,
  NRGRI(0451)= 2400,
  NRGRI(0452)= 2400,
  NRGRI(0453)= 2400,
  NRGRI(0454)= 2400,
  NRGRI(0455)= 2400,
  NRGRI(0456)= 2400,
  NRGRI(0457)= 2400,
  NRGRI(0458)= 2400,
  NRGRI(0459)= 2400,
  NRGRI(0460)= 2400,
  NRGRI(0461)= 2400,
  NRGRI(0462)= 2400,
  NRGRI(0463)= 2400,
  NRGRI(0464)= 2400,
  NRGRI(0465)= 2400,
  NRGRI(0466)= 2400,
  NRGRI(0467)= 2400,
  NRGRI(0468)= 2400,
  NRGRI(0469)= 2400,
  NRGRI(0470)= 2400,
  NRGRI(0471)= 2400,
  NRGRI(0472)= 2400,
  NRGRI(0473)= 2400,
  NRGRI(0474)= 2400,
  NRGRI(0475)= 2400,
  NRGRI(0476)= 2400,
  NRGRI(0477)= 2400,
  NRGRI(0478)= 2400,
  NRGRI(0479)= 2400,
  NRGRI(0480)= 2400,
  NRGRI(0481)= 2400,
  NRGRI(0482)= 2400,
  NRGRI(0483)= 2400,
  NRGRI(0484)= 2400,
  NRGRI(0485)= 2400,
  NRGRI(0486)= 2430,
  NRGRI(0487)= 2430,
  NRGRI(0488)= 2430,
  NRGRI(0489)= 2430,
  NRGRI(0490)= 2430,
  NRGRI(0491)= 2430,
  NRGRI(0492)= 2430,
  NRGRI(0493)= 2430,
  NRGRI(0494)= 2430,
  NRGRI(0495)= 2430,
  NRGRI(0496)= 2430,
  NRGRI(0497)= 2430,
  NRGRI(0498)= 2430,
  NRGRI(0499)= 2430,
  NRGRI(0500)= 2500,
  NRGRI(0501)= 2500,
  NRGRI(0502)= 2500,
  NRGRI(0503)= 2500,
  NRGRI(0504)= 2500,
  NRGRI(0505)= 2500,
  NRGRI(0506)= 2500,
  NRGRI(0507)= 2500,
  NRGRI(0508)= 2500,
  NRGRI(0509)= 2500,
  NRGRI(0510)= 2500,
  NRGRI(0511)= 2500,
  NRGRI(0512)= 2500,
  NRGRI(0513)= 2500,
  NRGRI(0514)= 2500,
  NRGRI(0515)= 2500,
  NRGRI(0516)= 2500,
  NRGRI(0517)= 2500,
  NRGRI(0518)= 2500,
  NRGRI(0519)= 2500,
  NRGRI(0520)= 2500,
  NRGRI(0521)= 2500,
  NRGRI(0522)= 2500,
  NRGRI(0523)= 2500,
  NRGRI(0524)= 2500,
  NRGRI(0525)= 2500,
  NRGRI(0526)= 2500,
  NRGRI(0527)= 2500,
  NRGRI(0528)= 2500,
  NRGRI(0529)= 2500,
  NRGRI(0530)= 2500,
  NRGRI(0531)= 2500,
  NRGRI(0532)= 2500,
  NRGRI(0533)= 2500,
  NRGRI(0534)= 2500,
  NRGRI(0535)= 2500,
  NRGRI(0536)= 2500,
  NRGRI(0537)= 2500,
  NRGRI(0538)= 2500,
  NRGRI(0539)= 2500,
  NRGRI(0540)= 2500,
  NRGRI(0541)= 2560,
  NRGRI(0542)= 2560,
  NRGRI(0543)= 2560,
  NRGRI(0544)= 2560,
  NRGRI(0545)= 2560,
  NRGRI(0546)= 2560,
  NRGRI(0547)= 2560,
  NRGRI(0548)= 2560,
  NRGRI(0549)= 2560,
  NRGRI(0550)= 2560,
  NRGRI(0551)= 2560,
  NRGRI(0552)= 2560,
  NRGRI(0553)= 2560,
  NRGRI(0554)= 2560,
  NRGRI(0555)= 2560,
  NRGRI(0556)= 2560,
  NRGRI(0557)= 2560,
  NRGRI(0558)= 2560,
  NRGRI(0559)= 2560,
  NRGRI(0560)= 2560,
  NRGRI(0561)= 2560,
  NRGRI(0562)= 2560,
  NRGRI(0563)= 2560,
  NRGRI(0564)= 2560,
  NRGRI(0565)= 2560,
  NRGRI(0566)= 2560,
  NRGRI(0567)= 2560,
  NRGRI(0568)= 2560,
  NRGRI(0569)= 2560,
  NRGRI(0570)= 2560,
  NRGRI(0571)= 2560,
  NRGRI(0572)= 2560,
  NRGRI(0573)= 2560,
  NRGRI(0574)= 2560,
  NRGRI(0575)= 2560,
  NRGRI(0576)= 2560,
  NRGRI(0577)= 2560,
  NRGRI(0578)= 2560,
  NRGRI(0579)= 2560,
  NRGRI(0580)= 2560,
  NRGRI(0581)= 2560,
  NRGRI(0582)= 2560,
  NRGRI(0583)= 2560,
  NRGRI(0584)= 2560,
  NRGRI(0585)= 2560,
  NRGRI(0586)= 2560,
  NRGRI(0587)= 2560,
  NRGRI(0588)= 2560,
  NRGRI(0589)= 2560,
  NRGRI(0590)= 2560,
  NRGRI(0591)= 2560,
  NRGRI(0592)= 2560,
  NRGRI(0593)= 2560,
  NRGRI(0594)= 2560,
  NRGRI(0595)= 2560,
  NRGRI(0596)= 2560,
  NRGRI(0597)= 2560,
  NRGRI(0598)= 2560,
  NRGRI(0599)= 2560,
  NRGRI(0600)= 2560,
  NRGRI(0601)= 2560,
  NRGRI(0602)= 2560,
  NRGRI(0603)= 2560,
  NRGRI(0604)= 2560,
  NRGRI(0605)= 2560,
  NRGRI(0606)= 2560,
  NRGRI(0607)= 2560,
  NRGRI(0608)= 2560,
  NRGRI(0609)= 2560,
  NRGRI(0610)= 2560,
  NRGRI(0611)= 2560,
  NRGRI(0612)= 2560,
  NRGRI(0613)= 2560,
  NRGRI(0614)= 2560,
  NRGRI(0615)= 2560,
  NRGRI(0616)= 2560,
  NRGRI(0617)= 2560,
  NRGRI(0618)= 2560,
  NRGRI(0619)= 2560,
  NRGRI(0620)= 2560,
  NRGRI(0621)= 2560,
  NRGRI(0622)= 2560,
  NRGRI(0623)= 2560,
  NRGRI(0624)= 2560,
  NRGRI(0625)= 2560,
  NRGRI(0626)= 2560,
  NRGRI(0627)= 2560,
  NRGRI(0628)= 2560,
  NRGRI(0629)= 2560,
  NRGRI(0630)= 2560,
  NRGRI(0631)= 2560,
  NRGRI(0632)= 2560,
  NRGRI(0633)= 2560,
  NRGRI(0634)= 2560,
  NRGRI(0635)= 2560,
  NRGRI(0636)= 2560,
  NRGRI(0637)= 2560,
  NRGRI(0638)= 2560,
  NRGRI(0639)= 2560,
  NRGRI(0640)= 2560,
  NRGRI(0641)= 2560,
  NRGRI(0642)= 2560,
  NRGRI(0643)= 2560,
  NRGRI(0644)= 2560,
  NRGRI(0645)= 2560,
  NRGRI(0646)= 2560,
  NRGRI(0647)= 2560,
  NRGRI(0648)= 2560,
  NRGRI(0649)= 2560,
  NRGRI(0650)= 2560,
  NRGRI(0651)= 2560,
  NRGRI(0652)= 2560,
  NRGRI(0653)= 2560,
  NRGRI(0654)= 2560,
  NRGRI(0655)= 2560,
  NRGRI(0656)= 2560,
  NRGRI(0657)= 2560,
  NRGRI(0658)= 2560,
  NRGRI(0659)= 2560,
  NRGRI(0660)= 2560,
  NRGRI(0661)= 2560,
  NRGRI(0662)= 2560,
  NRGRI(0663)= 2560,
  NRGRI(0664)= 2560,
  NRGRI(0665)= 2560,
  NRGRI(0666)= 2560,
  NRGRI(0667)= 2560,
  NRGRI(0668)= 2560,
  NRGRI(0669)= 2560,
  NRGRI(0670)= 2560,
  NRGRI(0671)= 2560,
  NRGRI(0672)= 2560,
  NRGRI(0673)= 2560,
  NRGRI(0674)= 2560,
  NRGRI(0675)= 2560,
  NRGRI(0676)= 2560,
  NRGRI(0677)= 2560,
  NRGRI(0678)= 2560,
  NRGRI(0679)= 2560,
  NRGRI(0680)= 2560,
  NRGRI(0681)= 2560,
  NRGRI(0682)= 2560,
  NRGRI(0683)= 2560,
  NRGRI(0684)= 2560,
  NRGRI(0685)= 2560,
  NRGRI(0686)= 2560,
  NRGRI(0687)= 2560,
  NRGRI(0688)= 2560,
  NRGRI(0689)= 2560,
  NRGRI(0690)= 2560,
  NRGRI(0691)= 2560,
  NRGRI(0692)= 2560,
  NRGRI(0693)= 2560,
  NRGRI(0694)= 2560,
  NRGRI(0695)= 2560,
  NRGRI(0696)= 2560,
  NRGRI(0697)= 2560,
  NRGRI(0698)= 2560,
  NRGRI(0699)= 2560,
  NRGRI(0700)= 2560,
  NRGRI(0701)= 2560,
  NRGRI(0702)= 2560,
  NRGRI(0703)= 2560,
  NRGRI(0704)= 2560,
  NRGRI(0705)= 2560,
  NRGRI(0706)= 2560,
  NRGRI(0707)= 2560,
  NRGRI(0708)= 2560,
  NRGRI(0709)= 2560,
  NRGRI(0710)= 2560,
  NRGRI(0711)= 2560,
  NRGRI(0712)= 2560,
  NRGRI(0713)= 2560,
  NRGRI(0714)= 2560,
  NRGRI(0715)= 2560,
  NRGRI(0716)= 2560,
  NRGRI(0717)= 2560,
  NRGRI(0718)= 2560,
  NRGRI(0719)= 2560,
  NRGRI(0720)= 2560,
  NRGRI(0721)= 2560,
  NRGRI(0722)= 2560,
  NRGRI(0723)= 2560,
  NRGRI(0724)= 2560,
  NRGRI(0725)= 2560,
  NRGRI(0726)= 2560,
  NRGRI(0727)= 2560,
  NRGRI(0728)= 2560,
  NRGRI(0729)= 2560,
  NRGRI(0730)= 2560,
  NRGRI(0731)= 2560,
  NRGRI(0732)= 2560,
  NRGRI(0733)= 2560,
  NRGRI(0734)= 2560,
  NRGRI(0735)= 2560,
  NRGRI(0736)= 2560,
  NRGRI(0737)= 2560,
  NRGRI(0738)= 2560,
  NRGRI(0739)= 2560,
  NRGRI(0740)= 2560,
  NRGRI(0741)= 2500,
  NRGRI(0742)= 2500,
  NRGRI(0743)= 2500,
  NRGRI(0744)= 2500,
  NRGRI(0745)= 2500,
  NRGRI(0746)= 2500,
  NRGRI(0747)= 2500,
  NRGRI(0748)= 2500,
  NRGRI(0749)= 2500,
  NRGRI(0750)= 2500,
  NRGRI(0751)= 2500,
  NRGRI(0752)= 2500,
  NRGRI(0753)= 2500,
  NRGRI(0754)= 2500,
  NRGRI(0755)= 2500,
  NRGRI(0756)= 2500,
  NRGRI(0757)= 2500,
  NRGRI(0758)= 2500,
  NRGRI(0759)= 2500,
  NRGRI(0760)= 2500,
  NRGRI(0761)= 2500,
  NRGRI(0762)= 2500,
  NRGRI(0763)= 2500,
  NRGRI(0764)= 2500,
  NRGRI(0765)= 2500,
  NRGRI(0766)= 2500,
  NRGRI(0767)= 2500,
  NRGRI(0768)= 2500,
  NRGRI(0769)= 2500,
  NRGRI(0770)= 2500,
  NRGRI(0771)= 2500,
  NRGRI(0772)= 2500,
  NRGRI(0773)= 2500,
  NRGRI(0774)= 2500,
  NRGRI(0775)= 2500,
  NRGRI(0776)= 2500,
  NRGRI(0777)= 2500,
  NRGRI(0778)= 2500,
  NRGRI(0779)= 2500,
  NRGRI(0780)= 2500,
  NRGRI(0781)= 2500,
  NRGRI(0782)= 2430,
  NRGRI(0783)= 2430,
  NRGRI(0784)= 2430,
  NRGRI(0785)= 2430,
  NRGRI(0786)= 2430,
  NRGRI(0787)= 2430,
  NRGRI(0788)= 2430,
  NRGRI(0789)= 2430,
  NRGRI(0790)= 2430,
  NRGRI(0791)= 2430,
  NRGRI(0792)= 2430,
  NRGRI(0793)= 2430,
  NRGRI(0794)= 2430,
  NRGRI(0795)= 2430,
  NRGRI(0796)= 2400,
  NRGRI(0797)= 2400,
  NRGRI(0798)= 2400,
  NRGRI(0799)= 2400,
  NRGRI(0800)= 2400,
  NRGRI(0801)= 2400,
  NRGRI(0802)= 2400,
  NRGRI(0803)= 2400,
  NRGRI(0804)= 2400,
  NRGRI(0805)= 2400,
  NRGRI(0806)= 2400,
  NRGRI(0807)= 2400,
  NRGRI(0808)= 2400,
  NRGRI(0809)= 2400,
  NRGRI(0810)= 2400,
  NRGRI(0811)= 2400,
  NRGRI(0812)= 2400,
  NRGRI(0813)= 2400,
  NRGRI(0814)= 2400,
  NRGRI(0815)= 2400,
  NRGRI(0816)= 2400,
  NRGRI(0817)= 2400,
  NRGRI(0818)= 2400,
  NRGRI(0819)= 2400,
  NRGRI(0820)= 2400,
  NRGRI(0821)= 2400,
  NRGRI(0822)= 2400,
  NRGRI(0823)= 2400,
  NRGRI(0824)= 2400,
  NRGRI(0825)= 2400,
  NRGRI(0826)= 2400,
  NRGRI(0827)= 2400,
  NRGRI(0828)= 2400,
  NRGRI(0829)= 2400,
  NRGRI(0830)= 2400,
  NRGRI(0831)= 2400,
  NRGRI(0832)= 2400,
  NRGRI(0833)= 2304,
  NRGRI(0834)= 2304,
  NRGRI(0835)= 2304,
  NRGRI(0836)= 2304,
  NRGRI(0837)= 2304,
  NRGRI(0838)= 2304,
  NRGRI(0839)= 2304,
  NRGRI(0840)= 2304,
  NRGRI(0841)= 2304,
  NRGRI(0842)= 2304,
  NRGRI(0843)= 2304,
  NRGRI(0844)= 2304,
  NRGRI(0845)= 2304,
  NRGRI(0846)= 2304,
  NRGRI(0847)= 2304,
  NRGRI(0848)= 2304,
  NRGRI(0849)= 2304,
  NRGRI(0850)= 2304,
  NRGRI(0851)= 2250,
  NRGRI(0852)= 2250,
  NRGRI(0853)= 2250,
  NRGRI(0854)= 2250,
  NRGRI(0855)= 2250,
  NRGRI(0856)= 2250,
  NRGRI(0857)= 2250,
  NRGRI(0858)= 2250,
  NRGRI(0859)= 2250,
  NRGRI(0860)= 2250,
  NRGRI(0861)= 2250,
  NRGRI(0862)= 2250,
  NRGRI(0863)= 2250,
  NRGRI(0864)= 2250,
  NRGRI(0865)= 2250,
  NRGRI(0866)= 2250,
  NRGRI(0867)= 2250,
  NRGRI(0868)= 2250,
  NRGRI(0869)= 2250,
  NRGRI(0870)= 2250,
  NRGRI(0871)= 2187,
  NRGRI(0872)= 2187,
  NRGRI(0873)= 2187,
  NRGRI(0874)= 2187,
  NRGRI(0875)= 2187,
  NRGRI(0876)= 2187,
  NRGRI(0877)= 2187,
  NRGRI(0878)= 2187,
  NRGRI(0879)= 2160,
  NRGRI(0880)= 2160,
  NRGRI(0881)= 2160,
  NRGRI(0882)= 2160,
  NRGRI(0883)= 2160,
  NRGRI(0884)= 2160,
  NRGRI(0885)= 2160,
  NRGRI(0886)= 2160,
  NRGRI(0887)= 2160,
  NRGRI(0888)= 2160,
  NRGRI(0889)= 2160,
  NRGRI(0890)= 2160,
  NRGRI(0891)= 2160,
  NRGRI(0892)= 2160,
  NRGRI(0893)= 2160,
  NRGRI(0894)= 2160,
  NRGRI(0895)= 2160,
  NRGRI(0896)= 2160,
  NRGRI(0897)= 2160,
  NRGRI(0898)= 2160,
  NRGRI(0899)= 2160,
  NRGRI(0900)= 2160,
  NRGRI(0901)= 2160,
  NRGRI(0902)= 2160,
  NRGRI(0903)= 2160,
  NRGRI(0904)= 2160,
  NRGRI(0905)= 2160,
  NRGRI(0906)= 2160,
  NRGRI(0907)= 2160,
  NRGRI(0908)= 2160,
  NRGRI(0909)= 2048,
  NRGRI(0910)= 2048,
  NRGRI(0911)= 2048,
  NRGRI(0912)= 2048,
  NRGRI(0913)= 2048,
  NRGRI(0914)= 2048,
  NRGRI(0915)= 2048,
  NRGRI(0916)= 2025,
  NRGRI(0917)= 2025,
  NRGRI(0918)= 2025,
  NRGRI(0919)= 2025,
  NRGRI(0920)= 2025,
  NRGRI(0921)= 2025,
  NRGRI(0922)= 2000,
  NRGRI(0923)= 2000,
  NRGRI(0924)= 2000,
  NRGRI(0925)= 2000,
  NRGRI(0926)= 2000,
  NRGRI(0927)= 2000,
  NRGRI(0928)= 2000,
  NRGRI(0929)= 2000,
  NRGRI(0930)= 2000,
  NRGRI(0931)= 2000,
  NRGRI(0932)= 2000,
  NRGRI(0933)= 2000,
  NRGRI(0934)= 2000,
  NRGRI(0935)= 2000,
  NRGRI(0936)= 1944,
  NRGRI(0937)= 1944,
  NRGRI(0938)= 1944,
  NRGRI(0939)= 1944,
  NRGRI(0940)= 1944,
  NRGRI(0941)= 1920,
  NRGRI(0942)= 1920,
  NRGRI(0943)= 1920,
  NRGRI(0944)= 1920,
  NRGRI(0945)= 1920,
  NRGRI(0946)= 1920,
  NRGRI(0947)= 1920,
  NRGRI(0948)= 1920,
  NRGRI(0949)= 1920,
  NRGRI(0950)= 1920,
  NRGRI(0951)= 1920,
  NRGRI(0952)= 1875,
  NRGRI(0953)= 1875,
  NRGRI(0954)= 1875,
  NRGRI(0955)= 1875,
  NRGRI(0956)= 1875,
  NRGRI(0957)= 1875,
  NRGRI(0958)= 1875,
  NRGRI(0959)= 1875,
  NRGRI(0960)= 1875,
  NRGRI(0961)= 1875,
  NRGRI(0962)= 1875,
  NRGRI(0963)= 1875,
  NRGRI(0964)= 1875,
  NRGRI(0965)= 1875,
  NRGRI(0966)= 1875,
  NRGRI(0967)= 1875,
  NRGRI(0968)= 1875,
  NRGRI(0969)= 1800,
  NRGRI(0970)= 1800,
  NRGRI(0971)= 1800,
  NRGRI(0972)= 1800,
  NRGRI(0973)= 1800,
  NRGRI(0974)= 1800,
  NRGRI(0975)= 1800,
  NRGRI(0976)= 1800,
  NRGRI(0977)= 1800,
  NRGRI(0978)= 1800,
  NRGRI(0979)= 1800,
  NRGRI(0980)= 1800,
  NRGRI(0981)= 1800,
  NRGRI(0982)= 1800,
  NRGRI(0983)= 1800,
  NRGRI(0984)= 1728,
  NRGRI(0985)= 1728,
  NRGRI(0986)= 1728,
  NRGRI(0987)= 1728,
  NRGRI(0988)= 1728,
  NRGRI(0989)= 1728,
  NRGRI(0990)= 1728,
  NRGRI(0991)= 1728,
  NRGRI(0992)= 1728,
  NRGRI(0993)= 1728,
  NRGRI(0994)= 1728,
  NRGRI(0995)= 1728,
  NRGRI(0996)= 1728,
  NRGRI(0997)= 1728,
  NRGRI(0998)= 1728,
  NRGRI(0999)= 1728,
  NRGRI(1000)= 1728,
  NRGRI(1001)= 1728,
  NRGRI(1002)= 1728,
  NRGRI(1003)= 1728,
  NRGRI(1004)= 1728,
  NRGRI(1005)= 1728,
  NRGRI(1006)= 1728,
  NRGRI(1007)= 1620,
  NRGRI(1008)= 1620,
  NRGRI(1009)= 1620,
  NRGRI(1010)= 1600,
  NRGRI(1011)= 1600,
  NRGRI(1012)= 1600,
  NRGRI(1013)= 1600,
  NRGRI(1014)= 1600,
  NRGRI(1015)= 1600,
  NRGRI(1016)= 1600,
  NRGRI(1017)= 1600,
  NRGRI(1018)= 1600,
  NRGRI(1019)= 1600,
  NRGRI(1020)= 1600,
  NRGRI(1021)= 1600,
  NRGRI(1022)= 1600,
  NRGRI(1023)= 1536,
  NRGRI(1024)= 1536,
  NRGRI(1025)= 1536,
  NRGRI(1026)= 1536,
  NRGRI(1027)= 1536,
  NRGRI(1028)= 1536,
  NRGRI(1029)= 1536,
  NRGRI(1030)= 1500,
  NRGRI(1031)= 1500,
  NRGRI(1032)= 1500,
  NRGRI(1033)= 1500,
  NRGRI(1034)= 1500,
  NRGRI(1035)= 1500,
  NRGRI(1036)= 1500,
  NRGRI(1037)= 1500,
  NRGRI(1038)= 1458,
  NRGRI(1039)= 1458,
  NRGRI(1040)= 1458,
  NRGRI(1041)= 1458,
  NRGRI(1042)= 1440,
  NRGRI(1043)= 1440,
  NRGRI(1044)= 1440,
  NRGRI(1045)= 1440,
  NRGRI(1046)= 1440,
  NRGRI(1047)= 1440,
  NRGRI(1048)= 1440,
  NRGRI(1049)= 1440,
  NRGRI(1050)= 1440,
  NRGRI(1051)= 1440,
  NRGRI(1052)= 1440,
  NRGRI(1053)= 1440,
  NRGRI(1054)= 1440,
  NRGRI(1055)= 1440,
  NRGRI(1056)= 1440,
  NRGRI(1057)= 1440,
  NRGRI(1058)= 1440,
  NRGRI(1059)= 1350,
  NRGRI(1060)= 1350,
  NRGRI(1061)= 1350,
  NRGRI(1062)= 1350,
  NRGRI(1063)= 1350,
  NRGRI(1064)= 1350,
  NRGRI(1065)= 1350,
  NRGRI(1066)= 1350,
  NRGRI(1067)= 1350,
  NRGRI(1068)= 1350,
  NRGRI(1069)= 1296,
  NRGRI(1070)= 1296,
  NRGRI(1071)= 1280,
  NRGRI(1072)= 1280,
  NRGRI(1073)= 1280,
  NRGRI(1074)= 1280,
  NRGRI(1075)= 1280,
  NRGRI(1076)= 1280,
  NRGRI(1077)= 1280,
  NRGRI(1078)= 1280,
  NRGRI(1079)= 1280,
  NRGRI(1080)= 1280,
  NRGRI(1081)= 1280,
  NRGRI(1082)= 1280,
  NRGRI(1083)= 1215,
  NRGRI(1084)= 1215,
  NRGRI(1085)= 1215,
  NRGRI(1086)= 1200,
  NRGRI(1087)= 1200,
  NRGRI(1088)= 1200,
  NRGRI(1089)= 1200,
  NRGRI(1090)= 1200,
  NRGRI(1091)= 1200,
  NRGRI(1092)= 1200,
  NRGRI(1093)= 1200,
  NRGRI(1094)= 1152,
  NRGRI(1095)= 1152,
  NRGRI(1096)= 1152,
  NRGRI(1097)= 1152,
  NRGRI(1098)= 1152,
  NRGRI(1099)= 1125,
  NRGRI(1100)= 1125,
  NRGRI(1101)= 1125,
  NRGRI(1102)= 1125,
  NRGRI(1103)= 1125,
  NRGRI(1104)= 1125,
  NRGRI(1105)= 1125,
  NRGRI(1106)= 1125,
  NRGRI(1107)= 1080,
  NRGRI(1108)= 1080,
  NRGRI(1109)= 1080,
  NRGRI(1110)= 1080,
  NRGRI(1111)= 1080,
  NRGRI(1112)= 1080,
  NRGRI(1113)= 1080,
  NRGRI(1114)= 1080,
  NRGRI(1115)= 1080,
  NRGRI(1116)= 1024,
  NRGRI(1117)= 1024,
  NRGRI(1118)= 1024,
  NRGRI(1119)= 1024,
  NRGRI(1120)= 1000,
  NRGRI(1121)= 1000,
  NRGRI(1122)= 1000,
  NRGRI(1123)= 1000,
  NRGRI(1124)= 1000,
  NRGRI(1125)=  972,
  NRGRI(1126)=  972,
  NRGRI(1127)=  960,
  NRGRI(1128)=  960,
  NRGRI(1129)=  960,
  NRGRI(1130)=  960,
  NRGRI(1131)=  960,
  NRGRI(1132)=  960,
  NRGRI(1133)=  960,
  NRGRI(1134)=  960,
  NRGRI(1135)=  960,
  NRGRI(1136)=  960,
  NRGRI(1137)=  960,
  NRGRI(1138)=  900,
  NRGRI(1139)=  900,
  NRGRI(1140)=  900,
  NRGRI(1141)=  900,
  NRGRI(1142)=  900,
  NRGRI(1143)=  900,
  NRGRI(1144)=  864,
  NRGRI(1145)=  864,
  NRGRI(1146)=  864,
  NRGRI(1147)=  864,
  NRGRI(1148)=  864,
  NRGRI(1149)=  864,
  NRGRI(1150)=  864,
  NRGRI(1151)=  864,
  NRGRI(1152)=  810,
  NRGRI(1153)=  810,
  NRGRI(1154)=  800,
  NRGRI(1155)=  800,
  NRGRI(1156)=  800,
  NRGRI(1157)=  800,
  NRGRI(1158)=  800,
  NRGRI(1159)=  768,
  NRGRI(1160)=  768,
  NRGRI(1161)=  768,
  NRGRI(1162)=  750,
  NRGRI(1163)=  750,
  NRGRI(1164)=  750,
  NRGRI(1165)=  750,
  NRGRI(1166)=  729,
  NRGRI(1167)=  720,
  NRGRI(1168)=  720,
  NRGRI(1169)=  720,
  NRGRI(1170)=  720,
  NRGRI(1171)=  720,
  NRGRI(1172)=  720,
  NRGRI(1173)=  720,
  NRGRI(1174)=  720,
  NRGRI(1175)=  675,
  NRGRI(1176)=  675,
  NRGRI(1177)=  675,
  NRGRI(1178)=  675,
  NRGRI(1179)=  648,
  NRGRI(1180)=  640,
  NRGRI(1181)=  640,
  NRGRI(1182)=  640,
  NRGRI(1183)=  640,
  NRGRI(1184)=  640,
  NRGRI(1185)=  640,
  NRGRI(1186)=  640,
  NRGRI(1187)=  600,
  NRGRI(1188)=  600,
  NRGRI(1189)=  600,
  NRGRI(1190)=  600,
  NRGRI(1191)=  576,
  NRGRI(1192)=  576,
  NRGRI(1193)=  576,
  NRGRI(1194)=  576,
  NRGRI(1195)=  576,
  NRGRI(1196)=  540,
  NRGRI(1197)=  540,
  NRGRI(1198)=  540,
  NRGRI(1199)=  540,
  NRGRI(1200)=  540,
  NRGRI(1201)=  512,
  NRGRI(1202)=  512,
  NRGRI(1203)=  500,
  NRGRI(1204)=  500,
  NRGRI(1205)=  486,
  NRGRI(1206)=  480,
  NRGRI(1207)=  480,
  NRGRI(1208)=  480,
  NRGRI(1209)=  480,
  NRGRI(1210)=  480,
  NRGRI(1211)=  450,
  NRGRI(1212)=  450,
  NRGRI(1213)=  450,
  NRGRI(1214)=  432,
  NRGRI(1215)=  432,
  NRGRI(1216)=  432,
  NRGRI(1217)=  432,
  NRGRI(1218)=  400,
  NRGRI(1219)=  400,
  NRGRI(1220)=  400,
  NRGRI(1221)=  384,
  NRGRI(1222)=  384,
  NRGRI(1223)=  375,
  NRGRI(1224)=  375,
  NRGRI(1225)=  360,
  NRGRI(1226)=  360,
  NRGRI(1227)=  360,
  NRGRI(1228)=  360,
  NRGRI(1229)=  360,
  NRGRI(1230)=  360,
  NRGRI(1231)=  320,
  NRGRI(1232)=  320,
  NRGRI(1233)=  320,
  NRGRI(1234)=  300,
  NRGRI(1235)=  300,
  NRGRI(1236)=  288,
  NRGRI(1237)=  288,
  NRGRI(1238)=  288,
  NRGRI(1239)=  270,
  NRGRI(1240)=  270,
  NRGRI(1241)=  256,
  NRGRI(1242)=  250,
  NRGRI(1243)=  243,
  NRGRI(1244)=  240,
  NRGRI(1245)=  240,
  NRGRI(1246)=  225,
  NRGRI(1247)=  216,
  NRGRI(1248)=  216,
  NRGRI(1249)=  216,
  NRGRI(1250)=  200,
  NRGRI(1251)=  192,
  NRGRI(1252)=  192,
  NRGRI(1253)=  180,
  NRGRI(1254)=  180,
  NRGRI(1255)=  180,
  NRGRI(1256)=  160,
  NRGRI(1257)=  160,
  NRGRI(1258)=  150,
  NRGRI(1259)=  144,
  NRGRI(1260)=  135,
  NRGRI(1261)=  125,
  NRGRI(1262)=  120,
  NRGRI(1263)=  120,
  NRGRI(1264)=  108,
  NRGRI(1265)=  100,
  NRGRI(1266)=   96,
  NRGRI(1267)=   90,
  NRGRI(1268)=   90,
  NRGRI(1269)=   81,
  NRGRI(1270)=   75,
  NRGRI(1271)=   72,
  NRGRI(1272)=   72,
  NRGRI(1273)=   60,
  NRGRI(1274)=   60,
  NRGRI(1275)=   50,
  NRGRI(1276)=   45,
  NRGRI(1277)=   40,
  NRGRI(1278)=   32,
  NRGRI(1279)=   25,
  NRGRI(1280)=   18,
 /
