 &NAMRGRI
  NRGRI(0001)=   20,
  NRGRI(0002)=   25,
  NRGRI(0003)=   36,
  NRGRI(0004)=   40,
  NRGRI(0005)=   45,
  NRGRI(0006)=   54,
  NRGRI(0007)=   60,
  NRGRI(0008)=   64,
  NRGRI(0009)=   72,
  NRGRI(0010)=   75,
  NRGRI(0011)=   80,
  NRGRI(0012)=   90,
  NRGRI(0013)=   96,
  NRGRI(0014)=  100,
  NRGRI(0015)=  108,
  NRGRI(0016)=  120,
  NRGRI(0017)=  120,
  NRGRI(0018)=  125,
  NRGRI(0019)=  135,
  NRGRI(0020)=  135,
  NRGRI(0021)=  144,
  NRGRI(0022)=  150,
  NRGRI(0023)=  160,
  NRGRI(0024)=  160,
  NRGRI(0025)=  180,
  NRGRI(0026)=  180,
  NRGRI(0027)=  180,
  NRGRI(0028)=  180,
  NRGRI(0029)=  192,
  NRGRI(0030)=  192,
  NRGRI(0031)=  200,
  NRGRI(0032)=  200,
  NRGRI(0033)=  216,
  NRGRI(0034)=  216,
  NRGRI(0035)=  216,
  NRGRI(0036)=  216,
  NRGRI(0037)=  225,
  NRGRI(0038)=  225,
  NRGRI(0039)=  225,
  NRGRI(0040)=  240,
  NRGRI(0041)=  240,
  NRGRI(0042)=  240,
  NRGRI(0043)=  240,
  NRGRI(0044)=  243,
  NRGRI(0045)=  250,
  NRGRI(0046)=  250,
  NRGRI(0047)=  250,
  NRGRI(0048)=  250,
  NRGRI(0049)=  256,
  NRGRI(0050)=  256,
  NRGRI(0051)=  256,
  NRGRI(0052)=  256,
  NRGRI(0053)=  256,
  NRGRI(0054)=  256,
  NRGRI(0055)=  256,
  NRGRI(0056)=  256,
  NRGRI(0057)=  256,
  NRGRI(0058)=  256,
  NRGRI(0059)=  256,
  NRGRI(0060)=  256,
  NRGRI(0061)=  256,
  NRGRI(0062)=  256,
  NRGRI(0063)=  256,
  NRGRI(0064)=  256,
  NRGRI(0065)=  256,
  NRGRI(0066)=  256,
  NRGRI(0067)=  256,
  NRGRI(0068)=  256,
  NRGRI(0069)=  256,
  NRGRI(0070)=  256,
  NRGRI(0071)=  256,
  NRGRI(0072)=  256,
  NRGRI(0073)=  256,
  NRGRI(0074)=  256,
  NRGRI(0075)=  256,
  NRGRI(0076)=  256,
  NRGRI(0077)=  256,
  NRGRI(0078)=  256,
  NRGRI(0079)=  256,
  NRGRI(0080)=  256,
  NRGRI(0081)=  250,
  NRGRI(0082)=  250,
  NRGRI(0083)=  250,
  NRGRI(0084)=  250,
  NRGRI(0085)=  243,
  NRGRI(0086)=  240,
  NRGRI(0087)=  240,
  NRGRI(0088)=  240,
  NRGRI(0089)=  240,
  NRGRI(0090)=  225,
  NRGRI(0091)=  225,
  NRGRI(0092)=  225,
  NRGRI(0093)=  216,
  NRGRI(0094)=  216,
  NRGRI(0095)=  216,
  NRGRI(0096)=  216,
  NRGRI(0097)=  200,
  NRGRI(0098)=  200,
  NRGRI(0099)=  192,
  NRGRI(0100)=  192,
  NRGRI(0101)=  180,
  NRGRI(0102)=  180,
  NRGRI(0103)=  180,
  NRGRI(0104)=  180,
  NRGRI(0105)=  160,
  NRGRI(0106)=  160,
  NRGRI(0107)=  150,
  NRGRI(0108)=  144,
  NRGRI(0109)=  135,
  NRGRI(0110)=  135,
  NRGRI(0111)=  125,
  NRGRI(0112)=  120,
  NRGRI(0113)=  120,
  NRGRI(0114)=  108,
  NRGRI(0115)=  100,
  NRGRI(0116)=   96,
  NRGRI(0117)=   90,
  NRGRI(0118)=   80,
  NRGRI(0119)=   75,
  NRGRI(0120)=   72,
  NRGRI(0121)=   64,
  NRGRI(0122)=   60,
  NRGRI(0123)=   54,
  NRGRI(0124)=   45,
  NRGRI(0125)=   40,
  NRGRI(0126)=   36,
  NRGRI(0127)=   25,
  NRGRI(0128)=   20,
 /
