 &NAMRGRI
  NRGRI(1)= 20,
  NRGRI(2)= 27,
  NRGRI(3)= 36,
  NRGRI(4)= 40,
  NRGRI(5)= 45,
  NRGRI(6)= 50,
  NRGRI(7)= 60,
  NRGRI(8)= 64,
  NRGRI(9)= 72,
  NRGRI(10)= 75,
  NRGRI(11)= 80,
  NRGRI(12)= 90,
  NRGRI(13)= 90,
  NRGRI(14)= 96,
  NRGRI(15)= 100,
  NRGRI(16)= 108,
  NRGRI(17)= 108,
  NRGRI(18)= 120,
  NRGRI(19)= 120,
  NRGRI(20)= 120,
  NRGRI(21)= 128,
  NRGRI(22)= 128,
  NRGRI(23)= 128,
  NRGRI(24)= 128,
  NRGRI(25)= 128,
  NRGRI(26)= 128,
  NRGRI(27)= 128,
  NRGRI(28)= 128,
  NRGRI(29)= 128,
  NRGRI(30)= 128,
  NRGRI(31)= 128,
  NRGRI(32)= 128,
  NRGRI(33)= 128,
  NRGRI(34)= 128,
  NRGRI(35)= 128,
  NRGRI(36)= 128,
  NRGRI(37)= 128,
  NRGRI(38)= 128,
  NRGRI(39)= 128,
  NRGRI(40)= 128,
  NRGRI(41)= 128,
  NRGRI(42)= 128,
  NRGRI(43)= 128,
  NRGRI(44)= 128,
  NRGRI(45)= 120,
  NRGRI(46)= 120,
  NRGRI(47)= 120,
  NRGRI(48)= 108,
  NRGRI(49)= 108,
  NRGRI(50)= 100,
  NRGRI(51)= 96,
  NRGRI(52)= 90,
  NRGRI(53)= 90,
  NRGRI(54)= 80,
  NRGRI(55)= 75,
  NRGRI(56)= 72,
  NRGRI(57)= 64,
  NRGRI(58)= 60,
  NRGRI(59)= 50,
  NRGRI(60)= 45,
  NRGRI(61)= 40,
  NRGRI(62)= 36,
  NRGRI(63)= 27,
  NRGRI(64)= 20,
 /
