 &NAMRGRI
  NRGRI(1)= 20,
  NRGRI(2)= 25,
  NRGRI(3)= 36,
  NRGRI(4)= 40,
  NRGRI(5)= 45,
  NRGRI(6)= 50,
  NRGRI(7)= 60,
  NRGRI(8)= 60,
  NRGRI(9)= 72,
  NRGRI(10)= 75,
  NRGRI(11)= 80,
  NRGRI(12)= 90,
  NRGRI(13)= 96,
  NRGRI(14)=100,
  NRGRI(15)=108,
  NRGRI(16)=120,
  NRGRI(17)=120,
  NRGRI(18)=120,
  NRGRI(19)=128,
  NRGRI(20)=135,
  NRGRI(21)=144,
  NRGRI(22)=144,
  NRGRI(23)=160,
  NRGRI(24)=160,
  NRGRI(25)=160,
  NRGRI(26)=160,
  NRGRI(27)=160,
  NRGRI(28)=180,
  NRGRI(29)=180,
  NRGRI(30)=180,
  NRGRI(31)=180,
  NRGRI(32)=180,
  NRGRI(33)=192,
  NRGRI(34)=192,
  NRGRI(35)=192,
  NRGRI(36)=192,
  NRGRI(37)=192,
  NRGRI(38)=192,
  NRGRI(39)=192,
  NRGRI(40)=192,
  NRGRI(41)=192,
  NRGRI(42)=192,
  NRGRI(43)=192,
  NRGRI(44)=192,
  NRGRI(45)=192,
  NRGRI(46)=192,
  NRGRI(47)=192,
  NRGRI(48)=192,
  NRGRI(49)=192,
  NRGRI(50)=192,
  NRGRI(51)=192,
  NRGRI(52)=192,
  NRGRI(53)=192,
  NRGRI(54)=192,
  NRGRI(55)=192,
  NRGRI(56)=192,
  NRGRI(57)=192,
  NRGRI(58)=192,
  NRGRI(59)=192,
  NRGRI(60)=192,
  NRGRI(61)=192,
  NRGRI(62)=192,
  NRGRI(63)=192,
  NRGRI(64)=192,
  NRGRI(65)=180,
  NRGRI(66)=180,
  NRGRI(67)=180,
  NRGRI(68)=180,
  NRGRI(69)=180,
  NRGRI(70)=160,
  NRGRI(71)=160,
  NRGRI(72)=160,
  NRGRI(73)=160,
  NRGRI(74)=160,
  NRGRI(75)=144,
  NRGRI(76)=144,
  NRGRI(77)=135,
  NRGRI(78)=128,
  NRGRI(79)=120,
  NRGRI(80)=120,
  NRGRI(81)=120,
  NRGRI(82)=108,
  NRGRI(83)=100,
  NRGRI(84)= 96,
  NRGRI(85)= 90,
  NRGRI(86)= 80,
  NRGRI(87)= 75,
  NRGRI(88)= 72,
  NRGRI(89)= 60,
  NRGRI(90)= 60,
  NRGRI(91)= 50,
  NRGRI(92)= 45,
  NRGRI(93)= 40,
  NRGRI(94)= 36,
  NRGRI(95)= 25,
  NRGRI(96)= 20,
 /
