 &NAMRGRI
  NRGRI(1)=   18,
  NRGRI(2)=   25,
  NRGRI(3)=   36,
  NRGRI(4)=   40,
  NRGRI(5)=   45,
  NRGRI(6)=   50,
  NRGRI(7)=   60,
  NRGRI(8)=   64,
  NRGRI(9)=   72,
  NRGRI(10)=   72,
  NRGRI(11)=   75,
  NRGRI(12)=   81,
  NRGRI(13)=   90,
  NRGRI(14)=   96,
  NRGRI(15)=  100,
  NRGRI(16)=  108,
  NRGRI(17)=  120,
  NRGRI(18)=  125,
  NRGRI(19)=  128,
  NRGRI(20)=  135,
  NRGRI(21)=  144,
  NRGRI(22)=  150,
  NRGRI(23)=  160,
  NRGRI(24)=  160,
  NRGRI(25)=  180,
  NRGRI(26)=  180,
  NRGRI(27)=  180,
  NRGRI(28)=  192,
  NRGRI(29)=  192,
  NRGRI(30)=  200,
  NRGRI(31)=  216,
  NRGRI(32)=  216,
  NRGRI(33)=  225,
  NRGRI(34)=  225,
  NRGRI(35)=  240,
  NRGRI(36)=  240,
  NRGRI(37)=  243,
  NRGRI(38)=  250,
  NRGRI(39)=  256,
  NRGRI(40)=  270,
  NRGRI(41)=  270,
  NRGRI(42)=  288,
  NRGRI(43)=  288,
  NRGRI(44)=  288,
  NRGRI(45)=  300,
  NRGRI(46)=  300,
  NRGRI(47)=  320,
  NRGRI(48)=  320,
  NRGRI(49)=  320,
  NRGRI(50)=  320,
  NRGRI(51)=  360,
  NRGRI(52)=  360,
  NRGRI(53)=  360,
  NRGRI(54)=  360,
  NRGRI(55)=  360,
  NRGRI(56)=  360,
  NRGRI(57)=  375,
  NRGRI(58)=  375,
  NRGRI(59)=  375,
  NRGRI(60)=  384,
  NRGRI(61)=  400,
  NRGRI(62)=  400,
  NRGRI(63)=  400,
  NRGRI(64)=  400,
  NRGRI(65)=  432,
  NRGRI(66)=  432,
  NRGRI(67)=  432,
  NRGRI(68)=  432,
  NRGRI(69)=  432,
  NRGRI(70)=  450,
  NRGRI(71)=  450,
  NRGRI(72)=  450,
  NRGRI(73)=  480,
  NRGRI(74)=  480,
  NRGRI(75)=  480,
  NRGRI(76)=  480,
  NRGRI(77)=  480,
  NRGRI(78)=  480,
  NRGRI(79)=  486,
  NRGRI(80)=  500,
  NRGRI(81)=  500,
  NRGRI(82)=  500,
  NRGRI(83)=  512,
  NRGRI(84)=  512,
  NRGRI(85)=  512,
  NRGRI(86)=  540,
  NRGRI(87)=  540,
  NRGRI(88)=  540,
  NRGRI(89)=  540,
  NRGRI(90)=  540,
  NRGRI(91)=  576,
  NRGRI(92)=  576,
  NRGRI(93)=  576,
  NRGRI(94)=  576,
  NRGRI(95)=  576,
  NRGRI(96)=  576,
  NRGRI(97)=  576,
  NRGRI(98)=  576,
  NRGRI(99)=  600,
  NRGRI(100)=  600,
  NRGRI(101)=  600,
  NRGRI(102)=  600,
  NRGRI(103)=  600,
  NRGRI(104)=  640,
  NRGRI(105)=  640,
  NRGRI(106)=  640,
  NRGRI(107)=  640,
  NRGRI(108)=  640,
  NRGRI(109)=  640,
  NRGRI(110)=  640,
  NRGRI(111)=  640,
  NRGRI(112)=  640,
  NRGRI(113)=  640,
  NRGRI(114)=  648,
  NRGRI(115)=  648,
  NRGRI(116)=  675,
  NRGRI(117)=  675,
  NRGRI(118)=  675,
  NRGRI(119)=  675,
  NRGRI(120)=  675,
  NRGRI(121)=  675,
  NRGRI(122)=  675,
  NRGRI(123)=  720,
  NRGRI(124)=  720,
  NRGRI(125)=  720,
  NRGRI(126)=  720,
  NRGRI(127)=  720,
  NRGRI(128)=  720,
  NRGRI(129)=  720,
  NRGRI(130)=  720,
  NRGRI(131)=  720,
  NRGRI(132)=  720,
  NRGRI(133)=  720,
  NRGRI(134)=  720,
  NRGRI(135)=  720,
  NRGRI(136)=  720,
  NRGRI(137)=  729,
  NRGRI(138)=  729,
  NRGRI(139)=  729,
  NRGRI(140)=  750,
  NRGRI(141)=  750,
  NRGRI(142)=  750,
  NRGRI(143)=  750,
  NRGRI(144)=  750,
  NRGRI(145)=  750,
  NRGRI(146)=  750,
  NRGRI(147)=  750,
  NRGRI(148)=  768,
  NRGRI(149)=  768,
  NRGRI(150)=  768,
  NRGRI(151)=  768,
  NRGRI(152)=  768,
  NRGRI(153)=  768,
  NRGRI(154)=  768,
  NRGRI(155)=  768,
  NRGRI(156)=  800,
  NRGRI(157)=  800,
  NRGRI(158)=  800,
  NRGRI(159)=  800,
  NRGRI(160)=  800,
  NRGRI(161)=  800,
  NRGRI(162)=  800,
  NRGRI(163)=  800,
  NRGRI(164)=  800,
  NRGRI(165)=  800,
  NRGRI(166)=  800,
  NRGRI(167)=  800,
  NRGRI(168)=  800,
  NRGRI(169)=  800,
  NRGRI(170)=  800,
  NRGRI(171)=  800,
  NRGRI(172)=  800,
  NRGRI(173)=  800,
  NRGRI(174)=  800,
  NRGRI(175)=  800,
  NRGRI(176)=  800,
  NRGRI(177)=  800,
  NRGRI(178)=  800,
  NRGRI(179)=  800,
  NRGRI(180)=  800,
  NRGRI(181)=  800,
  NRGRI(182)=  800,
  NRGRI(183)=  800,
  NRGRI(184)=  800,
  NRGRI(185)=  800,
  NRGRI(186)=  800,
  NRGRI(187)=  800,
  NRGRI(188)=  800,
  NRGRI(189)=  800,
  NRGRI(190)=  800,
  NRGRI(191)=  800,
  NRGRI(192)=  800,
  NRGRI(193)=  800,
  NRGRI(194)=  800,
  NRGRI(195)=  800,
  NRGRI(196)=  800,
  NRGRI(197)=  800,
  NRGRI(198)=  800,
  NRGRI(199)=  800,
  NRGRI(200)=  800,
  NRGRI(201)=  800,
  NRGRI(202)=  800,
  NRGRI(203)=  800,
  NRGRI(204)=  800,
  NRGRI(205)=  800,
  NRGRI(206)=  800,
  NRGRI(207)=  800,
  NRGRI(208)=  800,
  NRGRI(209)=  800,
  NRGRI(210)=  800,
  NRGRI(211)=  800,
  NRGRI(212)=  800,
  NRGRI(213)=  800,
  NRGRI(214)=  800,
  NRGRI(215)=  800,
  NRGRI(216)=  800,
  NRGRI(217)=  800,
  NRGRI(218)=  800,
  NRGRI(219)=  800,
  NRGRI(220)=  800,
  NRGRI(221)=  800,
  NRGRI(222)=  800,
  NRGRI(223)=  800,
  NRGRI(224)=  800,
  NRGRI(225)=  800,
  NRGRI(226)=  800,
  NRGRI(227)=  800,
  NRGRI(228)=  800,
  NRGRI(229)=  800,
  NRGRI(230)=  800,
  NRGRI(231)=  800,
  NRGRI(232)=  800,
  NRGRI(233)=  800,
  NRGRI(234)=  800,
  NRGRI(235)=  800,
  NRGRI(236)=  800,
  NRGRI(237)=  800,
  NRGRI(238)=  800,
  NRGRI(239)=  800,
  NRGRI(240)=  800,
  NRGRI(241)=  800,
  NRGRI(242)=  800,
  NRGRI(243)=  800,
  NRGRI(244)=  800,
  NRGRI(245)=  800,
  NRGRI(246)=  768,
  NRGRI(247)=  768,
  NRGRI(248)=  768,
  NRGRI(249)=  768,
  NRGRI(250)=  768,
  NRGRI(251)=  768,
  NRGRI(252)=  768,
  NRGRI(253)=  768,
  NRGRI(254)=  750,
  NRGRI(255)=  750,
  NRGRI(256)=  750,
  NRGRI(257)=  750,
  NRGRI(258)=  750,
  NRGRI(259)=  750,
  NRGRI(260)=  750,
  NRGRI(261)=  750,
  NRGRI(262)=  729,
  NRGRI(263)=  729,
  NRGRI(264)=  729,
  NRGRI(265)=  720,
  NRGRI(266)=  720,
  NRGRI(267)=  720,
  NRGRI(268)=  720,
  NRGRI(269)=  720,
  NRGRI(270)=  720,
  NRGRI(271)=  720,
  NRGRI(272)=  720,
  NRGRI(273)=  720,
  NRGRI(274)=  720,
  NRGRI(275)=  720,
  NRGRI(276)=  720,
  NRGRI(277)=  720,
  NRGRI(278)=  720,
  NRGRI(279)=  675,
  NRGRI(280)=  675,
  NRGRI(281)=  675,
  NRGRI(282)=  675,
  NRGRI(283)=  675,
  NRGRI(284)=  675,
  NRGRI(285)=  675,
  NRGRI(286)=  648,
  NRGRI(287)=  648,
  NRGRI(288)=  640,
  NRGRI(289)=  640,
  NRGRI(290)=  640,
  NRGRI(291)=  640,
  NRGRI(292)=  640,
  NRGRI(293)=  640,
  NRGRI(294)=  640,
  NRGRI(295)=  640,
  NRGRI(296)=  640,
  NRGRI(297)=  640,
  NRGRI(298)=  600,
  NRGRI(299)=  600,
  NRGRI(300)=  600,
  NRGRI(301)=  600,
  NRGRI(302)=  600,
  NRGRI(303)=  576,
  NRGRI(304)=  576,
  NRGRI(305)=  576,
  NRGRI(306)=  576,
  NRGRI(307)=  576,
  NRGRI(308)=  576,
  NRGRI(309)=  576,
  NRGRI(310)=  576,
  NRGRI(311)=  540,
  NRGRI(312)=  540,
  NRGRI(313)=  540,
  NRGRI(314)=  540,
  NRGRI(315)=  540,
  NRGRI(316)=  512,
  NRGRI(317)=  512,
  NRGRI(318)=  512,
  NRGRI(319)=  500,
  NRGRI(320)=  500,
  NRGRI(321)=  500,
  NRGRI(322)=  486,
  NRGRI(323)=  480,
  NRGRI(324)=  480,
  NRGRI(325)=  480,
  NRGRI(326)=  480,
  NRGRI(327)=  480,
  NRGRI(328)=  480,
  NRGRI(329)=  450,
  NRGRI(330)=  450,
  NRGRI(331)=  450,
  NRGRI(332)=  432,
  NRGRI(333)=  432,
  NRGRI(334)=  432,
  NRGRI(335)=  432,
  NRGRI(336)=  432,
  NRGRI(337)=  400,
  NRGRI(338)=  400,
  NRGRI(339)=  400,
  NRGRI(340)=  400,
  NRGRI(341)=  384,
  NRGRI(342)=  375,
  NRGRI(343)=  375,
  NRGRI(344)=  375,
  NRGRI(345)=  360,
  NRGRI(346)=  360,
  NRGRI(347)=  360,
  NRGRI(348)=  360,
  NRGRI(349)=  360,
  NRGRI(350)=  360,
  NRGRI(351)=  320,
  NRGRI(352)=  320,
  NRGRI(353)=  320,
  NRGRI(354)=  320,
  NRGRI(355)=  300,
  NRGRI(356)=  300,
  NRGRI(357)=  288,
  NRGRI(358)=  288,
  NRGRI(359)=  288,
  NRGRI(360)=  270,
  NRGRI(361)=  270,
  NRGRI(362)=  256,
  NRGRI(363)=  250,
  NRGRI(364)=  243,
  NRGRI(365)=  240,
  NRGRI(366)=  240,
  NRGRI(367)=  225,
  NRGRI(368)=  225,
  NRGRI(369)=  216,
  NRGRI(370)=  216,
  NRGRI(371)=  200,
  NRGRI(372)=  192,
  NRGRI(373)=  192,
  NRGRI(374)=  180,
  NRGRI(375)=  180,
  NRGRI(376)=  180,
  NRGRI(377)=  160,
  NRGRI(378)=  160,
  NRGRI(379)=  150,
  NRGRI(380)=  144,
  NRGRI(381)=  135,
  NRGRI(382)=  128,
  NRGRI(383)=  125,
  NRGRI(384)=  120,
  NRGRI(385)=  108,
  NRGRI(386)=  100,
  NRGRI(387)=   96,
  NRGRI(388)=   90,
  NRGRI(389)=   81,
  NRGRI(390)=   75,
  NRGRI(391)=   72,
  NRGRI(392)=   72,
  NRGRI(393)=   64,
  NRGRI(394)=   60,
  NRGRI(395)=   50,
  NRGRI(396)=   45,
  NRGRI(397)=   40,
  NRGRI(398)=   36,
  NRGRI(399)=   25,
  NRGRI(400)=   18,
 /
