 &NAMRGRI
  NRGRI(0001)=   20,
  NRGRI(0002)=   25,
  NRGRI(0003)=   36,
  NRGRI(0004)=   40,
  NRGRI(0005)=   45,
  NRGRI(0006)=   48,
  NRGRI(0007)=   54,
  NRGRI(0008)=   60,
  NRGRI(0009)=   64,
  NRGRI(0010)=   72,
  NRGRI(0011)=   80,
  NRGRI(0012)=   80,
  NRGRI(0013)=   90,
  NRGRI(0014)=   90,
  NRGRI(0015)=   96,
  NRGRI(0016)=   96,
  NRGRI(0017)=   96,
  NRGRI(0018)=   96,
  NRGRI(0019)=   96,
  NRGRI(0020)=   96,
  NRGRI(0021)=   96,
  NRGRI(0022)=   96,
  NRGRI(0023)=   96,
  NRGRI(0024)=   96,
  NRGRI(0025)=   96,
  NRGRI(0026)=   96,
  NRGRI(0027)=   96,
  NRGRI(0028)=   96,
  NRGRI(0029)=   96,
  NRGRI(0030)=   96,
  NRGRI(0031)=   96,
  NRGRI(0032)=   96,
  NRGRI(0033)=   96,
  NRGRI(0034)=   96,
  NRGRI(0035)=   90,
  NRGRI(0036)=   90,
  NRGRI(0037)=   80,
  NRGRI(0038)=   80,
  NRGRI(0039)=   72,
  NRGRI(0040)=   64,
  NRGRI(0041)=   60,
  NRGRI(0042)=   54,
  NRGRI(0043)=   48,
  NRGRI(0044)=   45,
  NRGRI(0045)=   40,
  NRGRI(0046)=   36,
  NRGRI(0047)=   25,
  NRGRI(0048)=   20,
 /
