 &NAMRGRI
  NRGRI(1)=   18,
  NRGRI(2)=   25,
  NRGRI(3)=   36,
  NRGRI(4)=   40,
  NRGRI(5)=   45,
  NRGRI(6)=   50,
  NRGRI(7)=   60,
  NRGRI(8)=   64,
  NRGRI(9)=   72,
  NRGRI(10)=   72,
  NRGRI(11)=   80,
  NRGRI(12)=   90,
  NRGRI(13)=   90,
  NRGRI(14)=  100,
  NRGRI(15)=  108,
  NRGRI(16)=  120,
  NRGRI(17)=  120,
  NRGRI(18)=  125,
  NRGRI(19)=  128,
  NRGRI(20)=  144,
  NRGRI(21)=  144,
  NRGRI(22)=  150,
  NRGRI(23)=  160,
  NRGRI(24)=  160,
  NRGRI(25)=  180,
  NRGRI(26)=  180,
  NRGRI(27)=  180,
  NRGRI(28)=  192,
  NRGRI(29)=  192,
  NRGRI(30)=  200,
  NRGRI(31)=  216,
  NRGRI(32)=  216,
  NRGRI(33)=  216,
  NRGRI(34)=  225,
  NRGRI(35)=  240,
  NRGRI(36)=  240,
  NRGRI(37)=  240,
  NRGRI(38)=  250,
  NRGRI(39)=  250,
  NRGRI(40)=  256,
  NRGRI(41)=  270,
  NRGRI(42)=  270,
  NRGRI(43)=  288,
  NRGRI(44)=  288,
  NRGRI(45)=  288,
  NRGRI(46)=  300,
  NRGRI(47)=  300,
  NRGRI(48)=  320,
  NRGRI(49)=  320,
  NRGRI(50)=  320,
  NRGRI(51)=  320,
  NRGRI(52)=  324,
  NRGRI(53)=  360,
  NRGRI(54)=  360,
  NRGRI(55)=  360,
  NRGRI(56)=  360,
  NRGRI(57)=  360,
  NRGRI(58)=  360,
  NRGRI(59)=  360,
  NRGRI(60)=  375,
  NRGRI(61)=  375,
  NRGRI(62)=  375,
  NRGRI(63)=  375,
  NRGRI(64)=  384,
  NRGRI(65)=  384,
  NRGRI(66)=  400,
  NRGRI(67)=  400,
  NRGRI(68)=  400,
  NRGRI(69)=  400,
  NRGRI(70)=  405,
  NRGRI(71)=  432,
  NRGRI(72)=  432,
  NRGRI(73)=  432,
  NRGRI(74)=  432,
  NRGRI(75)=  432,
  NRGRI(76)=  432,
  NRGRI(77)=  432,
  NRGRI(78)=  450,
  NRGRI(79)=  450,
  NRGRI(80)=  450,
  NRGRI(81)=  450,
  NRGRI(82)=  450,
  NRGRI(83)=  480,
  NRGRI(84)=  480,
  NRGRI(85)=  480,
  NRGRI(86)=  480,
  NRGRI(87)=  480,
  NRGRI(88)=  480,
  NRGRI(89)=  480,
  NRGRI(90)=  480,
  NRGRI(91)=  480,
  NRGRI(92)=  480,
  NRGRI(93)=  486,
  NRGRI(94)=  486,
  NRGRI(95)=  486,
  NRGRI(96)=  500,
  NRGRI(97)=  500,
  NRGRI(98)=  500,
  NRGRI(99)=  500,
  NRGRI(100)=  500,
  NRGRI(101)=  500,
  NRGRI(102)=  500,
  NRGRI(103)=  512,
  NRGRI(104)=  512,
  NRGRI(105)=  512,
  NRGRI(106)=  512,
  NRGRI(107)=  512,
  NRGRI(108)=  512,
  NRGRI(109)=  512,
  NRGRI(110)=  512,
  NRGRI(111)=  512,
  NRGRI(112)=  512,
  NRGRI(113)=  512,
  NRGRI(114)=  512,
  NRGRI(115)=  512,
  NRGRI(116)=  512,
  NRGRI(117)=  512,
  NRGRI(118)=  512,
  NRGRI(119)=  512,
  NRGRI(120)=  512,
  NRGRI(121)=  512,
  NRGRI(122)=  512,
  NRGRI(123)=  512,
  NRGRI(124)=  512,
  NRGRI(125)=  512,
  NRGRI(126)=  512,
  NRGRI(127)=  512,
  NRGRI(128)=  512,
  NRGRI(129)=  512,
  NRGRI(130)=  512,
  NRGRI(131)=  512,
  NRGRI(132)=  512,
  NRGRI(133)=  512,
  NRGRI(134)=  512,
  NRGRI(135)=  512,
  NRGRI(136)=  512,
  NRGRI(137)=  512,
  NRGRI(138)=  512,
  NRGRI(139)=  512,
  NRGRI(140)=  512,
  NRGRI(141)=  512,
  NRGRI(142)=  512,
  NRGRI(143)=  512,
  NRGRI(144)=  512,
  NRGRI(145)=  512,
  NRGRI(146)=  512,
  NRGRI(147)=  512,
  NRGRI(148)=  512,
  NRGRI(149)=  512,
  NRGRI(150)=  512,
  NRGRI(151)=  512,
  NRGRI(152)=  512,
  NRGRI(153)=  512,
  NRGRI(154)=  512,
  NRGRI(155)=  500,
  NRGRI(156)=  500,
  NRGRI(157)=  500,
  NRGRI(158)=  500,
  NRGRI(159)=  500,
  NRGRI(160)=  500,
  NRGRI(161)=  500,
  NRGRI(162)=  486,
  NRGRI(163)=  486,
  NRGRI(164)=  486,
  NRGRI(165)=  480,
  NRGRI(166)=  480,
  NRGRI(167)=  480,
  NRGRI(168)=  480,
  NRGRI(169)=  480,
  NRGRI(170)=  480,
  NRGRI(171)=  480,
  NRGRI(172)=  480,
  NRGRI(173)=  480,
  NRGRI(174)=  480,
  NRGRI(175)=  450,
  NRGRI(176)=  450,
  NRGRI(177)=  450,
  NRGRI(178)=  450,
  NRGRI(179)=  450,
  NRGRI(180)=  432,
  NRGRI(181)=  432,
  NRGRI(182)=  432,
  NRGRI(183)=  432,
  NRGRI(184)=  432,
  NRGRI(185)=  432,
  NRGRI(186)=  432,
  NRGRI(187)=  405,
  NRGRI(188)=  400,
  NRGRI(189)=  400,
  NRGRI(190)=  400,
  NRGRI(191)=  400,
  NRGRI(192)=  384,
  NRGRI(193)=  384,
  NRGRI(194)=  375,
  NRGRI(195)=  375,
  NRGRI(196)=  375,
  NRGRI(197)=  375,
  NRGRI(198)=  360,
  NRGRI(199)=  360,
  NRGRI(200)=  360,
  NRGRI(201)=  360,
  NRGRI(202)=  360,
  NRGRI(203)=  360,
  NRGRI(204)=  360,
  NRGRI(205)=  324,
  NRGRI(206)=  320,
  NRGRI(207)=  320,
  NRGRI(208)=  320,
  NRGRI(209)=  320,
  NRGRI(210)=  300,
  NRGRI(211)=  300,
  NRGRI(212)=  288,
  NRGRI(213)=  288,
  NRGRI(214)=  288,
  NRGRI(215)=  270,
  NRGRI(216)=  270,
  NRGRI(217)=  256,
  NRGRI(218)=  250,
  NRGRI(219)=  250,
  NRGRI(220)=  240,
  NRGRI(221)=  240,
  NRGRI(222)=  240,
  NRGRI(223)=  225,
  NRGRI(224)=  216,
  NRGRI(225)=  216,
  NRGRI(226)=  216,
  NRGRI(227)=  200,
  NRGRI(228)=  192,
  NRGRI(229)=  192,
  NRGRI(230)=  180,
  NRGRI(231)=  180,
  NRGRI(232)=  180,
  NRGRI(233)=  160,
  NRGRI(234)=  160,
  NRGRI(235)=  150,
  NRGRI(236)=  144,
  NRGRI(237)=  144,
  NRGRI(238)=  128,
  NRGRI(239)=  125,
  NRGRI(240)=  120,
  NRGRI(241)=  120,
  NRGRI(242)=  108,
  NRGRI(243)=  100,
  NRGRI(244)=   90,
  NRGRI(245)=   90,
  NRGRI(246)=   80,
  NRGRI(247)=   72,
  NRGRI(248)=   72,
  NRGRI(249)=   64,
  NRGRI(250)=   60,
  NRGRI(251)=   50,
  NRGRI(252)=   45,
  NRGRI(253)=   40,
  NRGRI(254)=   36,
  NRGRI(255)=   25,
  NRGRI(256)=   18,
 /
