 &NAMRGRI
  NRGRI(1)=   18,
  NRGRI(2)=   25,
  NRGRI(3)=   36,
  NRGRI(4)=   40,
  NRGRI(5)=   45,
  NRGRI(6)=   50,
  NRGRI(7)=   60,
  NRGRI(8)=   64,
  NRGRI(9)=   72,
  NRGRI(10)=   72,
  NRGRI(11)=   75,
  NRGRI(12)=   81,
  NRGRI(13)=   90,
  NRGRI(14)=   96,
  NRGRI(15)=  100,
  NRGRI(16)=  108,
  NRGRI(17)=  120,
  NRGRI(18)=  120,
  NRGRI(19)=  125,
  NRGRI(20)=  135,
  NRGRI(21)=  144,
  NRGRI(22)=  144,
  NRGRI(23)=  150,
  NRGRI(24)=  160,
  NRGRI(25)=  180,
  NRGRI(26)=  180,
  NRGRI(27)=  180,
  NRGRI(28)=  192,
  NRGRI(29)=  192,
  NRGRI(30)=  200,
  NRGRI(31)=  216,
  NRGRI(32)=  216,
  NRGRI(33)=  216,
  NRGRI(34)=  225,
  NRGRI(35)=  240,
  NRGRI(36)=  240,
  NRGRI(37)=  240,
  NRGRI(38)=  250,
  NRGRI(39)=  256,
  NRGRI(40)=  270,
  NRGRI(41)=  270,
  NRGRI(42)=  288,
  NRGRI(43)=  288,
  NRGRI(44)=  288,
  NRGRI(45)=  300,
  NRGRI(46)=  300,
  NRGRI(47)=  320,
  NRGRI(48)=  320,
  NRGRI(49)=  320,
  NRGRI(50)=  324,
  NRGRI(51)=  360,
  NRGRI(52)=  360,
  NRGRI(53)=  360,
  NRGRI(54)=  360,
  NRGRI(55)=  360,
  NRGRI(56)=  360,
  NRGRI(57)=  375,
  NRGRI(58)=  375,
  NRGRI(59)=  384,
  NRGRI(60)=  384,
  NRGRI(61)=  400,
  NRGRI(62)=  400,
  NRGRI(63)=  405,
  NRGRI(64)=  432,
  NRGRI(65)=  432,
  NRGRI(66)=  432,
  NRGRI(67)=  432,
  NRGRI(68)=  450,
  NRGRI(69)=  450,
  NRGRI(70)=  450,
  NRGRI(71)=  480,
  NRGRI(72)=  480,
  NRGRI(73)=  480,
  NRGRI(74)=  480,
  NRGRI(75)=  480,
  NRGRI(76)=  486,
  NRGRI(77)=  500,
  NRGRI(78)=  500,
  NRGRI(79)=  500,
  NRGRI(80)=  512,
  NRGRI(81)=  512,
  NRGRI(82)=  540,
  NRGRI(83)=  540,
  NRGRI(84)=  540,
  NRGRI(85)=  540,
  NRGRI(86)=  540,
  NRGRI(87)=  576,
  NRGRI(88)=  576,
  NRGRI(89)=  576,
  NRGRI(90)=  576,
  NRGRI(91)=  576,
  NRGRI(92)=  576,
  NRGRI(93)=  600,
  NRGRI(94)=  600,
  NRGRI(95)=  600,
  NRGRI(96)=  600,
  NRGRI(97)=  640,
  NRGRI(98)=  640,
  NRGRI(99)=  640,
  NRGRI(100)=  640,
  NRGRI(101)=  640,
  NRGRI(102)=  640,
  NRGRI(103)=  640,
  NRGRI(104)=  648,
  NRGRI(105)=  648,
  NRGRI(106)=  675,
  NRGRI(107)=  675,
  NRGRI(108)=  675,
  NRGRI(109)=  675,
  NRGRI(110)=  720,
  NRGRI(111)=  720,
  NRGRI(112)=  720,
  NRGRI(113)=  720,
  NRGRI(114)=  720,
  NRGRI(115)=  720,
  NRGRI(116)=  720,
  NRGRI(117)=  720,
  NRGRI(118)=  720,
  NRGRI(119)=  729,
  NRGRI(120)=  750,
  NRGRI(121)=  750,
  NRGRI(122)=  750,
  NRGRI(123)=  750,
  NRGRI(124)=  768,
  NRGRI(125)=  768,
  NRGRI(126)=  768,
  NRGRI(127)=  768,
  NRGRI(128)=  800,
  NRGRI(129)=  800,
  NRGRI(130)=  800,
  NRGRI(131)=  800,
  NRGRI(132)=  800,
  NRGRI(133)=  800,
  NRGRI(134)=  810,
  NRGRI(135)=  810,
  NRGRI(136)=  864,
  NRGRI(137)=  864,
  NRGRI(138)=  864,
  NRGRI(139)=  864,
  NRGRI(140)=  864,
  NRGRI(141)=  864,
  NRGRI(142)=  864,
  NRGRI(143)=  864,
  NRGRI(144)=  864,
  NRGRI(145)=  864,
  NRGRI(146)=  864,
  NRGRI(147)=  900,
  NRGRI(148)=  900,
  NRGRI(149)=  900,
  NRGRI(150)=  900,
  NRGRI(151)=  900,
  NRGRI(152)=  900,
  NRGRI(153)=  900,
  NRGRI(154)=  900,
  NRGRI(155)=  960,
  NRGRI(156)=  960,
  NRGRI(157)=  960,
  NRGRI(158)=  960,
  NRGRI(159)=  960,
  NRGRI(160)=  960,
  NRGRI(161)=  960,
  NRGRI(162)=  960,
  NRGRI(163)=  960,
  NRGRI(164)=  960,
  NRGRI(165)=  960,
  NRGRI(166)=  960,
  NRGRI(167)=  960,
  NRGRI(168)=  960,
  NRGRI(169)=  972,
  NRGRI(170)=  972,
  NRGRI(171)= 1000,
  NRGRI(172)= 1000,
  NRGRI(173)= 1000,
  NRGRI(174)= 1000,
  NRGRI(175)= 1000,
  NRGRI(176)= 1000,
  NRGRI(177)= 1000,
  NRGRI(178)= 1000,
  NRGRI(179)= 1024,
  NRGRI(180)= 1024,
  NRGRI(181)= 1024,
  NRGRI(182)= 1024,
  NRGRI(183)= 1024,
  NRGRI(184)= 1024,
  NRGRI(185)= 1080,
  NRGRI(186)= 1080,
  NRGRI(187)= 1080,
  NRGRI(188)= 1080,
  NRGRI(189)= 1080,
  NRGRI(190)= 1080,
  NRGRI(191)= 1080,
  NRGRI(192)= 1080,
  NRGRI(193)= 1080,
  NRGRI(194)= 1080,
  NRGRI(195)= 1080,
  NRGRI(196)= 1080,
  NRGRI(197)= 1080,
  NRGRI(198)= 1080,
  NRGRI(199)= 1125,
  NRGRI(200)= 1125,
  NRGRI(201)= 1125,
  NRGRI(202)= 1125,
  NRGRI(203)= 1125,
  NRGRI(204)= 1125,
  NRGRI(205)= 1125,
  NRGRI(206)= 1125,
  NRGRI(207)= 1125,
  NRGRI(208)= 1125,
  NRGRI(209)= 1125,
  NRGRI(210)= 1125,
  NRGRI(211)= 1125,
  NRGRI(212)= 1125,
  NRGRI(213)= 1152,
  NRGRI(214)= 1152,
  NRGRI(215)= 1152,
  NRGRI(216)= 1152,
  NRGRI(217)= 1152,
  NRGRI(218)= 1152,
  NRGRI(219)= 1152,
  NRGRI(220)= 1152,
  NRGRI(221)= 1152,
  NRGRI(222)= 1200,
  NRGRI(223)= 1200,
  NRGRI(224)= 1200,
  NRGRI(225)= 1200,
  NRGRI(226)= 1200,
  NRGRI(227)= 1200,
  NRGRI(228)= 1200,
  NRGRI(229)= 1200,
  NRGRI(230)= 1200,
  NRGRI(231)= 1200,
  NRGRI(232)= 1200,
  NRGRI(233)= 1200,
  NRGRI(234)= 1200,
  NRGRI(235)= 1200,
  NRGRI(236)= 1200,
  NRGRI(237)= 1200,
  NRGRI(238)= 1200,
  NRGRI(239)= 1200,
  NRGRI(240)= 1215,
  NRGRI(241)= 1215,
  NRGRI(242)= 1215,
  NRGRI(243)= 1215,
  NRGRI(244)= 1215,
  NRGRI(245)= 1215,
  NRGRI(246)= 1215,
  NRGRI(247)= 1280,
  NRGRI(248)= 1280,
  NRGRI(249)= 1280,
  NRGRI(250)= 1280,
  NRGRI(251)= 1280,
  NRGRI(252)= 1280,
  NRGRI(253)= 1280,
  NRGRI(254)= 1280,
  NRGRI(255)= 1280,
  NRGRI(256)= 1280,
  NRGRI(257)= 1280,
  NRGRI(258)= 1280,
  NRGRI(259)= 1280,
  NRGRI(260)= 1280,
  NRGRI(261)= 1280,
  NRGRI(262)= 1280,
  NRGRI(263)= 1280,
  NRGRI(264)= 1280,
  NRGRI(265)= 1280,
  NRGRI(266)= 1280,
  NRGRI(267)= 1280,
  NRGRI(268)= 1280,
  NRGRI(269)= 1280,
  NRGRI(270)= 1280,
  NRGRI(271)= 1280,
  NRGRI(272)= 1280,
  NRGRI(273)= 1280,
  NRGRI(274)= 1280,
  NRGRI(275)= 1280,
  NRGRI(276)= 1280,
  NRGRI(277)= 1280,
  NRGRI(278)= 1280,
  NRGRI(279)= 1280,
  NRGRI(280)= 1280,
  NRGRI(281)= 1280,
  NRGRI(282)= 1280,
  NRGRI(283)= 1280,
  NRGRI(284)= 1280,
  NRGRI(285)= 1280,
  NRGRI(286)= 1280,
  NRGRI(287)= 1280,
  NRGRI(288)= 1280,
  NRGRI(289)= 1280,
  NRGRI(290)= 1280,
  NRGRI(291)= 1280,
  NRGRI(292)= 1280,
  NRGRI(293)= 1280,
  NRGRI(294)= 1280,
  NRGRI(295)= 1280,
  NRGRI(296)= 1280,
  NRGRI(297)= 1280,
  NRGRI(298)= 1280,
  NRGRI(299)= 1280,
  NRGRI(300)= 1280,
  NRGRI(301)= 1280,
  NRGRI(302)= 1280,
  NRGRI(303)= 1280,
  NRGRI(304)= 1280,
  NRGRI(305)= 1280,
  NRGRI(306)= 1280,
  NRGRI(307)= 1280,
  NRGRI(308)= 1280,
  NRGRI(309)= 1280,
  NRGRI(310)= 1280,
  NRGRI(311)= 1280,
  NRGRI(312)= 1280,
  NRGRI(313)= 1280,
  NRGRI(314)= 1280,
  NRGRI(315)= 1280,
  NRGRI(316)= 1280,
  NRGRI(317)= 1280,
  NRGRI(318)= 1280,
  NRGRI(319)= 1280,
  NRGRI(320)= 1280,
  NRGRI(321)= 1280,
  NRGRI(322)= 1280,
  NRGRI(323)= 1280,
  NRGRI(324)= 1280,
  NRGRI(325)= 1280,
  NRGRI(326)= 1280,
  NRGRI(327)= 1280,
  NRGRI(328)= 1280,
  NRGRI(329)= 1280,
  NRGRI(330)= 1280,
  NRGRI(331)= 1280,
  NRGRI(332)= 1280,
  NRGRI(333)= 1280,
  NRGRI(334)= 1280,
  NRGRI(335)= 1280,
  NRGRI(336)= 1280,
  NRGRI(337)= 1280,
  NRGRI(338)= 1280,
  NRGRI(339)= 1280,
  NRGRI(340)= 1280,
  NRGRI(341)= 1280,
  NRGRI(342)= 1280,
  NRGRI(343)= 1280,
  NRGRI(344)= 1280,
  NRGRI(345)= 1280,
  NRGRI(346)= 1280,
  NRGRI(347)= 1280,
  NRGRI(348)= 1280,
  NRGRI(349)= 1280,
  NRGRI(350)= 1280,
  NRGRI(351)= 1280,
  NRGRI(352)= 1280,
  NRGRI(353)= 1280,
  NRGRI(354)= 1280,
  NRGRI(355)= 1280,
  NRGRI(356)= 1280,
  NRGRI(357)= 1280,
  NRGRI(358)= 1280,
  NRGRI(359)= 1280,
  NRGRI(360)= 1280,
  NRGRI(361)= 1280,
  NRGRI(362)= 1280,
  NRGRI(363)= 1280,
  NRGRI(364)= 1280,
  NRGRI(365)= 1280,
  NRGRI(366)= 1280,
  NRGRI(367)= 1280,
  NRGRI(368)= 1280,
  NRGRI(369)= 1280,
  NRGRI(370)= 1280,
  NRGRI(371)= 1280,
  NRGRI(372)= 1280,
  NRGRI(373)= 1280,
  NRGRI(374)= 1280,
  NRGRI(375)= 1280,
  NRGRI(376)= 1280,
  NRGRI(377)= 1280,
  NRGRI(378)= 1280,
  NRGRI(379)= 1280,
  NRGRI(380)= 1280,
  NRGRI(381)= 1280,
  NRGRI(382)= 1280,
  NRGRI(383)= 1280,
  NRGRI(384)= 1280,
  NRGRI(385)= 1280,
  NRGRI(386)= 1280,
  NRGRI(387)= 1280,
  NRGRI(388)= 1280,
  NRGRI(389)= 1280,
  NRGRI(390)= 1280,
  NRGRI(391)= 1280,
  NRGRI(392)= 1280,
  NRGRI(393)= 1280,
  NRGRI(394)= 1280,
  NRGRI(395)= 1215,
  NRGRI(396)= 1215,
  NRGRI(397)= 1215,
  NRGRI(398)= 1215,
  NRGRI(399)= 1215,
  NRGRI(400)= 1215,
  NRGRI(401)= 1215,
  NRGRI(402)= 1200,
  NRGRI(403)= 1200,
  NRGRI(404)= 1200,
  NRGRI(405)= 1200,
  NRGRI(406)= 1200,
  NRGRI(407)= 1200,
  NRGRI(408)= 1200,
  NRGRI(409)= 1200,
  NRGRI(410)= 1200,
  NRGRI(411)= 1200,
  NRGRI(412)= 1200,
  NRGRI(413)= 1200,
  NRGRI(414)= 1200,
  NRGRI(415)= 1200,
  NRGRI(416)= 1200,
  NRGRI(417)= 1200,
  NRGRI(418)= 1200,
  NRGRI(419)= 1200,
  NRGRI(420)= 1152,
  NRGRI(421)= 1152,
  NRGRI(422)= 1152,
  NRGRI(423)= 1152,
  NRGRI(424)= 1152,
  NRGRI(425)= 1152,
  NRGRI(426)= 1152,
  NRGRI(427)= 1152,
  NRGRI(428)= 1152,
  NRGRI(429)= 1125,
  NRGRI(430)= 1125,
  NRGRI(431)= 1125,
  NRGRI(432)= 1125,
  NRGRI(433)= 1125,
  NRGRI(434)= 1125,
  NRGRI(435)= 1125,
  NRGRI(436)= 1125,
  NRGRI(437)= 1125,
  NRGRI(438)= 1125,
  NRGRI(439)= 1125,
  NRGRI(440)= 1125,
  NRGRI(441)= 1125,
  NRGRI(442)= 1125,
  NRGRI(443)= 1080,
  NRGRI(444)= 1080,
  NRGRI(445)= 1080,
  NRGRI(446)= 1080,
  NRGRI(447)= 1080,
  NRGRI(448)= 1080,
  NRGRI(449)= 1080,
  NRGRI(450)= 1080,
  NRGRI(451)= 1080,
  NRGRI(452)= 1080,
  NRGRI(453)= 1080,
  NRGRI(454)= 1080,
  NRGRI(455)= 1080,
  NRGRI(456)= 1080,
  NRGRI(457)= 1024,
  NRGRI(458)= 1024,
  NRGRI(459)= 1024,
  NRGRI(460)= 1024,
  NRGRI(461)= 1024,
  NRGRI(462)= 1024,
  NRGRI(463)= 1000,
  NRGRI(464)= 1000,
  NRGRI(465)= 1000,
  NRGRI(466)= 1000,
  NRGRI(467)= 1000,
  NRGRI(468)= 1000,
  NRGRI(469)= 1000,
  NRGRI(470)= 1000,
  NRGRI(471)=  972,
  NRGRI(472)=  972,
  NRGRI(473)=  960,
  NRGRI(474)=  960,
  NRGRI(475)=  960,
  NRGRI(476)=  960,
  NRGRI(477)=  960,
  NRGRI(478)=  960,
  NRGRI(479)=  960,
  NRGRI(480)=  960,
  NRGRI(481)=  960,
  NRGRI(482)=  960,
  NRGRI(483)=  960,
  NRGRI(484)=  960,
  NRGRI(485)=  960,
  NRGRI(486)=  960,
  NRGRI(487)=  900,
  NRGRI(488)=  900,
  NRGRI(489)=  900,
  NRGRI(490)=  900,
  NRGRI(491)=  900,
  NRGRI(492)=  900,
  NRGRI(493)=  900,
  NRGRI(494)=  900,
  NRGRI(495)=  864,
  NRGRI(496)=  864,
  NRGRI(497)=  864,
  NRGRI(498)=  864,
  NRGRI(499)=  864,
  NRGRI(500)=  864,
  NRGRI(501)=  864,
  NRGRI(502)=  864,
  NRGRI(503)=  864,
  NRGRI(504)=  864,
  NRGRI(505)=  864,
  NRGRI(506)=  810,
  NRGRI(507)=  810,
  NRGRI(508)=  800,
  NRGRI(509)=  800,
  NRGRI(510)=  800,
  NRGRI(511)=  800,
  NRGRI(512)=  800,
  NRGRI(513)=  800,
  NRGRI(514)=  768,
  NRGRI(515)=  768,
  NRGRI(516)=  768,
  NRGRI(517)=  768,
  NRGRI(518)=  750,
  NRGRI(519)=  750,
  NRGRI(520)=  750,
  NRGRI(521)=  750,
  NRGRI(522)=  729,
  NRGRI(523)=  720,
  NRGRI(524)=  720,
  NRGRI(525)=  720,
  NRGRI(526)=  720,
  NRGRI(527)=  720,
  NRGRI(528)=  720,
  NRGRI(529)=  720,
  NRGRI(530)=  720,
  NRGRI(531)=  720,
  NRGRI(532)=  675,
  NRGRI(533)=  675,
  NRGRI(534)=  675,
  NRGRI(535)=  675,
  NRGRI(536)=  648,
  NRGRI(537)=  648,
  NRGRI(538)=  640,
  NRGRI(539)=  640,
  NRGRI(540)=  640,
  NRGRI(541)=  640,
  NRGRI(542)=  640,
  NRGRI(543)=  640,
  NRGRI(544)=  640,
  NRGRI(545)=  600,
  NRGRI(546)=  600,
  NRGRI(547)=  600,
  NRGRI(548)=  600,
  NRGRI(549)=  576,
  NRGRI(550)=  576,
  NRGRI(551)=  576,
  NRGRI(552)=  576,
  NRGRI(553)=  576,
  NRGRI(554)=  576,
  NRGRI(555)=  540,
  NRGRI(556)=  540,
  NRGRI(557)=  540,
  NRGRI(558)=  540,
  NRGRI(559)=  540,
  NRGRI(560)=  512,
  NRGRI(561)=  512,
  NRGRI(562)=  500,
  NRGRI(563)=  500,
  NRGRI(564)=  500,
  NRGRI(565)=  486,
  NRGRI(566)=  480,
  NRGRI(567)=  480,
  NRGRI(568)=  480,
  NRGRI(569)=  480,
  NRGRI(570)=  480,
  NRGRI(571)=  450,
  NRGRI(572)=  450,
  NRGRI(573)=  450,
  NRGRI(574)=  432,
  NRGRI(575)=  432,
  NRGRI(576)=  432,
  NRGRI(577)=  432,
  NRGRI(578)=  405,
  NRGRI(579)=  400,
  NRGRI(580)=  400,
  NRGRI(581)=  384,
  NRGRI(582)=  384,
  NRGRI(583)=  375,
  NRGRI(584)=  375,
  NRGRI(585)=  360,
  NRGRI(586)=  360,
  NRGRI(587)=  360,
  NRGRI(588)=  360,
  NRGRI(589)=  360,
  NRGRI(590)=  360,
  NRGRI(591)=  324,
  NRGRI(592)=  320,
  NRGRI(593)=  320,
  NRGRI(594)=  320,
  NRGRI(595)=  300,
  NRGRI(596)=  300,
  NRGRI(597)=  288,
  NRGRI(598)=  288,
  NRGRI(599)=  288,
  NRGRI(600)=  270,
  NRGRI(601)=  270,
  NRGRI(602)=  256,
  NRGRI(603)=  250,
  NRGRI(604)=  240,
  NRGRI(605)=  240,
  NRGRI(606)=  240,
  NRGRI(607)=  225,
  NRGRI(608)=  216,
  NRGRI(609)=  216,
  NRGRI(610)=  216,
  NRGRI(611)=  200,
  NRGRI(612)=  192,
  NRGRI(613)=  192,
  NRGRI(614)=  180,
  NRGRI(615)=  180,
  NRGRI(616)=  180,
  NRGRI(617)=  160,
  NRGRI(618)=  150,
  NRGRI(619)=  144,
  NRGRI(620)=  144,
  NRGRI(621)=  135,
  NRGRI(622)=  125,
  NRGRI(623)=  120,
  NRGRI(624)=  120,
  NRGRI(625)=  108,
  NRGRI(626)=  100,
  NRGRI(627)=   96,
  NRGRI(628)=   90,
  NRGRI(629)=   81,
  NRGRI(630)=   75,
  NRGRI(631)=   72,
  NRGRI(632)=   72,
  NRGRI(633)=   64,
  NRGRI(634)=   60,
  NRGRI(635)=   50,
  NRGRI(636)=   45,
  NRGRI(637)=   40,
  NRGRI(638)=   36,
  NRGRI(639)=   25,
  NRGRI(640)=   18,
 /
