 &NAMRGRI
  NRGRI(0001)=   18,
  NRGRI(0002)=   25,
  NRGRI(0003)=   32,
  NRGRI(0004)=   40,
  NRGRI(0005)=   45,
  NRGRI(0006)=   50,
  NRGRI(0007)=   60,
  NRGRI(0008)=   60,
  NRGRI(0009)=   72,
  NRGRI(0010)=   72,
  NRGRI(0011)=   75,
  NRGRI(0012)=   81,
  NRGRI(0013)=   90,
  NRGRI(0014)=   96,
  NRGRI(0015)=   96,
  NRGRI(0016)=  100,
  NRGRI(0017)=  108,
  NRGRI(0018)=  120,
  NRGRI(0019)=  125,
  NRGRI(0020)=  128,
  NRGRI(0021)=  135,
  NRGRI(0022)=  144,
  NRGRI(0023)=  150,
  NRGRI(0024)=  160,
  NRGRI(0025)=  160,
  NRGRI(0026)=  180,
  NRGRI(0027)=  180,
  NRGRI(0028)=  180,
  NRGRI(0029)=  192,
  NRGRI(0030)=  192,
  NRGRI(0031)=  200,
  NRGRI(0032)=  216,
  NRGRI(0033)=  216,
  NRGRI(0034)=  225,
  NRGRI(0035)=  225,
  NRGRI(0036)=  240,
  NRGRI(0037)=  240,
  NRGRI(0038)=  243,
  NRGRI(0039)=  250,
  NRGRI(0040)=  256,
  NRGRI(0041)=  270,
  NRGRI(0042)=  270,
  NRGRI(0043)=  288,
  NRGRI(0044)=  288,
  NRGRI(0045)=  288,
  NRGRI(0046)=  300,
  NRGRI(0047)=  320,
  NRGRI(0048)=  320,
  NRGRI(0049)=  320,
  NRGRI(0050)=  320,
  NRGRI(0051)=  360,
  NRGRI(0052)=  360,
  NRGRI(0053)=  360,
  NRGRI(0054)=  360,
  NRGRI(0055)=  360,
  NRGRI(0056)=  360,
  NRGRI(0057)=  375,
  NRGRI(0058)=  375,
  NRGRI(0059)=  384,
  NRGRI(0060)=  384,
  NRGRI(0061)=  400,
  NRGRI(0062)=  400,
  NRGRI(0063)=  400,
  NRGRI(0064)=  432,
  NRGRI(0065)=  432,
  NRGRI(0066)=  432,
  NRGRI(0067)=  432,
  NRGRI(0068)=  450,
  NRGRI(0069)=  450,
  NRGRI(0070)=  450,
  NRGRI(0071)=  480,
  NRGRI(0072)=  480,
  NRGRI(0073)=  480,
  NRGRI(0074)=  480,
  NRGRI(0075)=  480,
  NRGRI(0076)=  486,
  NRGRI(0077)=  500,
  NRGRI(0078)=  500,
  NRGRI(0079)=  512,
  NRGRI(0080)=  512,
  NRGRI(0081)=  540,
  NRGRI(0082)=  540,
  NRGRI(0083)=  540,
  NRGRI(0084)=  540,
  NRGRI(0085)=  540,
  NRGRI(0086)=  576,
  NRGRI(0087)=  576,
  NRGRI(0088)=  576,
  NRGRI(0089)=  576,
  NRGRI(0090)=  576,
  NRGRI(0091)=  576,
  NRGRI(0092)=  600,
  NRGRI(0093)=  600,
  NRGRI(0094)=  600,
  NRGRI(0095)=  640,
  NRGRI(0096)=  640,
  NRGRI(0097)=  640,
  NRGRI(0098)=  640,
  NRGRI(0099)=  640,
  NRGRI(0100)=  640,
  NRGRI(0101)=  640,
  NRGRI(0102)=  648,
  NRGRI(0103)=  675,
  NRGRI(0104)=  675,
  NRGRI(0105)=  675,
  NRGRI(0106)=  675,
  NRGRI(0107)=  675,
  NRGRI(0108)=  720,
  NRGRI(0109)=  720,
  NRGRI(0110)=  720,
  NRGRI(0111)=  720,
  NRGRI(0112)=  720,
  NRGRI(0113)=  720,
  NRGRI(0114)=  720,
  NRGRI(0115)=  729,
  NRGRI(0116)=  729,
  NRGRI(0117)=  750,
  NRGRI(0118)=  750,
  NRGRI(0119)=  750,
  NRGRI(0120)=  768,
  NRGRI(0121)=  768,
  NRGRI(0122)=  768,
  NRGRI(0123)=  800,
  NRGRI(0124)=  800,
  NRGRI(0125)=  800,
  NRGRI(0126)=  800,
  NRGRI(0127)=  800,
  NRGRI(0128)=  800,
  NRGRI(0129)=  810,
  NRGRI(0130)=  864,
  NRGRI(0131)=  864,
  NRGRI(0132)=  864,
  NRGRI(0133)=  864,
  NRGRI(0134)=  864,
  NRGRI(0135)=  864,
  NRGRI(0136)=  864,
  NRGRI(0137)=  864,
  NRGRI(0138)=  864,
  NRGRI(0139)=  864,
  NRGRI(0140)=  900,
  NRGRI(0141)=  900,
  NRGRI(0142)=  900,
  NRGRI(0143)=  900,
  NRGRI(0144)=  900,
  NRGRI(0145)=  900,
  NRGRI(0146)=  960,
  NRGRI(0147)=  960,
  NRGRI(0148)=  960,
  NRGRI(0149)=  960,
  NRGRI(0150)=  960,
  NRGRI(0151)=  960,
  NRGRI(0152)=  960,
  NRGRI(0153)=  960,
  NRGRI(0154)=  960,
  NRGRI(0155)=  960,
  NRGRI(0156)=  960,
  NRGRI(0157)=  972,
  NRGRI(0158)=  972,
  NRGRI(0159)= 1000,
  NRGRI(0160)= 1000,
  NRGRI(0161)= 1000,
  NRGRI(0162)= 1000,
  NRGRI(0163)= 1000,
  NRGRI(0164)= 1024,
  NRGRI(0165)= 1024,
  NRGRI(0166)= 1024,
  NRGRI(0167)= 1024,
  NRGRI(0168)= 1080,
  NRGRI(0169)= 1080,
  NRGRI(0170)= 1080,
  NRGRI(0171)= 1080,
  NRGRI(0172)= 1080,
  NRGRI(0173)= 1080,
  NRGRI(0174)= 1080,
  NRGRI(0175)= 1080,
  NRGRI(0176)= 1080,
  NRGRI(0177)= 1080,
  NRGRI(0178)= 1125,
  NRGRI(0179)= 1125,
  NRGRI(0180)= 1125,
  NRGRI(0181)= 1125,
  NRGRI(0182)= 1125,
  NRGRI(0183)= 1125,
  NRGRI(0184)= 1125,
  NRGRI(0185)= 1125,
  NRGRI(0186)= 1125,
  NRGRI(0187)= 1152,
  NRGRI(0188)= 1152,
  NRGRI(0189)= 1152,
  NRGRI(0190)= 1152,
  NRGRI(0191)= 1152,
  NRGRI(0192)= 1200,
  NRGRI(0193)= 1200,
  NRGRI(0194)= 1200,
  NRGRI(0195)= 1200,
  NRGRI(0196)= 1200,
  NRGRI(0197)= 1200,
  NRGRI(0198)= 1200,
  NRGRI(0199)= 1200,
  NRGRI(0200)= 1200,
  NRGRI(0201)= 1215,
  NRGRI(0202)= 1215,
  NRGRI(0203)= 1215,
  NRGRI(0204)= 1280,
  NRGRI(0205)= 1280,
  NRGRI(0206)= 1280,
  NRGRI(0207)= 1280,
  NRGRI(0208)= 1280,
  NRGRI(0209)= 1280,
  NRGRI(0210)= 1280,
  NRGRI(0211)= 1280,
  NRGRI(0212)= 1280,
  NRGRI(0213)= 1280,
  NRGRI(0214)= 1280,
  NRGRI(0215)= 1280,
  NRGRI(0216)= 1280,
  NRGRI(0217)= 1296,
  NRGRI(0218)= 1296,
  NRGRI(0219)= 1296,
  NRGRI(0220)= 1350,
  NRGRI(0221)= 1350,
  NRGRI(0222)= 1350,
  NRGRI(0223)= 1350,
  NRGRI(0224)= 1350,
  NRGRI(0225)= 1350,
  NRGRI(0226)= 1350,
  NRGRI(0227)= 1350,
  NRGRI(0228)= 1350,
  NRGRI(0229)= 1350,
  NRGRI(0230)= 1350,
  NRGRI(0231)= 1440,
  NRGRI(0232)= 1440,
  NRGRI(0233)= 1440,
  NRGRI(0234)= 1440,
  NRGRI(0235)= 1440,
  NRGRI(0236)= 1440,
  NRGRI(0237)= 1440,
  NRGRI(0238)= 1440,
  NRGRI(0239)= 1440,
  NRGRI(0240)= 1440,
  NRGRI(0241)= 1440,
  NRGRI(0242)= 1440,
  NRGRI(0243)= 1440,
  NRGRI(0244)= 1440,
  NRGRI(0245)= 1440,
  NRGRI(0246)= 1440,
  NRGRI(0247)= 1440,
  NRGRI(0248)= 1440,
  NRGRI(0249)= 1440,
  NRGRI(0250)= 1458,
  NRGRI(0251)= 1458,
  NRGRI(0252)= 1458,
  NRGRI(0253)= 1458,
  NRGRI(0254)= 1500,
  NRGRI(0255)= 1500,
  NRGRI(0256)= 1500,
  NRGRI(0257)= 1500,
  NRGRI(0258)= 1500,
  NRGRI(0259)= 1500,
  NRGRI(0260)= 1500,
  NRGRI(0261)= 1500,
  NRGRI(0262)= 1500,
  NRGRI(0263)= 1500,
  NRGRI(0264)= 1536,
  NRGRI(0265)= 1536,
  NRGRI(0266)= 1536,
  NRGRI(0267)= 1536,
  NRGRI(0268)= 1536,
  NRGRI(0269)= 1536,
  NRGRI(0270)= 1536,
  NRGRI(0271)= 1536,
  NRGRI(0272)= 1600,
  NRGRI(0273)= 1600,
  NRGRI(0274)= 1600,
  NRGRI(0275)= 1600,
  NRGRI(0276)= 1600,
  NRGRI(0277)= 1600,
  NRGRI(0278)= 1600,
  NRGRI(0279)= 1600,
  NRGRI(0280)= 1600,
  NRGRI(0281)= 1600,
  NRGRI(0282)= 1600,
  NRGRI(0283)= 1600,
  NRGRI(0284)= 1600,
  NRGRI(0285)= 1600,
  NRGRI(0286)= 1600,
  NRGRI(0287)= 1600,
  NRGRI(0288)= 1620,
  NRGRI(0289)= 1620,
  NRGRI(0290)= 1620,
  NRGRI(0291)= 1620,
  NRGRI(0292)= 1728,
  NRGRI(0293)= 1728,
  NRGRI(0294)= 1728,
  NRGRI(0295)= 1728,
  NRGRI(0296)= 1728,
  NRGRI(0297)= 1728,
  NRGRI(0298)= 1728,
  NRGRI(0299)= 1728,
  NRGRI(0300)= 1728,
  NRGRI(0301)= 1728,
  NRGRI(0302)= 1728,
  NRGRI(0303)= 1728,
  NRGRI(0304)= 1728,
  NRGRI(0305)= 1728,
  NRGRI(0306)= 1728,
  NRGRI(0307)= 1728,
  NRGRI(0308)= 1728,
  NRGRI(0309)= 1728,
  NRGRI(0310)= 1728,
  NRGRI(0311)= 1728,
  NRGRI(0312)= 1728,
  NRGRI(0313)= 1728,
  NRGRI(0314)= 1728,
  NRGRI(0315)= 1728,
  NRGRI(0316)= 1728,
  NRGRI(0317)= 1728,
  NRGRI(0318)= 1728,
  NRGRI(0319)= 1728,
  NRGRI(0320)= 1728,
  NRGRI(0321)= 1728,
  NRGRI(0322)= 1800,
  NRGRI(0323)= 1800,
  NRGRI(0324)= 1800,
  NRGRI(0325)= 1800,
  NRGRI(0326)= 1800,
  NRGRI(0327)= 1800,
  NRGRI(0328)= 1800,
  NRGRI(0329)= 1800,
  NRGRI(0330)= 1800,
  NRGRI(0331)= 1800,
  NRGRI(0332)= 1800,
  NRGRI(0333)= 1800,
  NRGRI(0334)= 1800,
  NRGRI(0335)= 1800,
  NRGRI(0336)= 1800,
  NRGRI(0337)= 1800,
  NRGRI(0338)= 1800,
  NRGRI(0339)= 1800,
  NRGRI(0340)= 1800,
  NRGRI(0341)= 1800,
  NRGRI(0342)= 1800,
  NRGRI(0343)= 1800,
  NRGRI(0344)= 1875,
  NRGRI(0345)= 1875,
  NRGRI(0346)= 1875,
  NRGRI(0347)= 1875,
  NRGRI(0348)= 1875,
  NRGRI(0349)= 1875,
  NRGRI(0350)= 1875,
  NRGRI(0351)= 1875,
  NRGRI(0352)= 1875,
  NRGRI(0353)= 1875,
  NRGRI(0354)= 1875,
  NRGRI(0355)= 1875,
  NRGRI(0356)= 1875,
  NRGRI(0357)= 1875,
  NRGRI(0358)= 1875,
  NRGRI(0359)= 1875,
  NRGRI(0360)= 1875,
  NRGRI(0361)= 1875,
  NRGRI(0362)= 1875,
  NRGRI(0363)= 1875,
  NRGRI(0364)= 1875,
  NRGRI(0365)= 1875,
  NRGRI(0366)= 1875,
  NRGRI(0367)= 1875,
  NRGRI(0368)= 1875,
  NRGRI(0369)= 1875,
  NRGRI(0370)= 1920,
  NRGRI(0371)= 1920,
  NRGRI(0372)= 1920,
  NRGRI(0373)= 1920,
  NRGRI(0374)= 1920,
  NRGRI(0375)= 1920,
  NRGRI(0376)= 1920,
  NRGRI(0377)= 1920,
  NRGRI(0378)= 1920,
  NRGRI(0379)= 1920,
  NRGRI(0380)= 1920,
  NRGRI(0381)= 1920,
  NRGRI(0382)= 1920,
  NRGRI(0383)= 1920,
  NRGRI(0384)= 1920,
  NRGRI(0385)= 1920,
  NRGRI(0386)= 1920,
  NRGRI(0387)= 1920,
  NRGRI(0388)= 1944,
  NRGRI(0389)= 1944,
  NRGRI(0390)= 1944,
  NRGRI(0391)= 1944,
  NRGRI(0392)= 1944,
  NRGRI(0393)= 1944,
  NRGRI(0394)= 1944,
  NRGRI(0395)= 1944,
  NRGRI(0396)= 1944,
  NRGRI(0397)= 1944,
  NRGRI(0398)= 1944,
  NRGRI(0399)= 2000,
  NRGRI(0400)= 2000,
  NRGRI(0401)= 2000,
  NRGRI(0402)= 2000,
  NRGRI(0403)= 2000,
  NRGRI(0404)= 2000,
  NRGRI(0405)= 2000,
  NRGRI(0406)= 2000,
  NRGRI(0407)= 2000,
  NRGRI(0408)= 2000,
  NRGRI(0409)= 2000,
  NRGRI(0410)= 2000,
  NRGRI(0411)= 2000,
  NRGRI(0412)= 2000,
  NRGRI(0413)= 2000,
  NRGRI(0414)= 2000,
  NRGRI(0415)= 2000,
  NRGRI(0416)= 2000,
  NRGRI(0417)= 2000,
  NRGRI(0418)= 2000,
  NRGRI(0419)= 2000,
  NRGRI(0420)= 2000,
  NRGRI(0421)= 2000,
  NRGRI(0422)= 2000,
  NRGRI(0423)= 2000,
  NRGRI(0424)= 2000,
  NRGRI(0425)= 2000,
  NRGRI(0426)= 2000,
  NRGRI(0427)= 2000,
  NRGRI(0428)= 2000,
  NRGRI(0429)= 2000,
  NRGRI(0430)= 2000,
  NRGRI(0431)= 2025,
  NRGRI(0432)= 2025,
  NRGRI(0433)= 2025,
  NRGRI(0434)= 2025,
  NRGRI(0435)= 2025,
  NRGRI(0436)= 2025,
  NRGRI(0437)= 2025,
  NRGRI(0438)= 2025,
  NRGRI(0439)= 2025,
  NRGRI(0440)= 2025,
  NRGRI(0441)= 2025,
  NRGRI(0442)= 2025,
  NRGRI(0443)= 2025,
  NRGRI(0444)= 2025,
  NRGRI(0445)= 2025,
  NRGRI(0446)= 2025,
  NRGRI(0447)= 2025,
  NRGRI(0448)= 2025,
  NRGRI(0449)= 2048,
  NRGRI(0450)= 2048,
  NRGRI(0451)= 2048,
  NRGRI(0452)= 2048,
  NRGRI(0453)= 2048,
  NRGRI(0454)= 2048,
  NRGRI(0455)= 2048,
  NRGRI(0456)= 2048,
  NRGRI(0457)= 2048,
  NRGRI(0458)= 2048,
  NRGRI(0459)= 2048,
  NRGRI(0460)= 2048,
  NRGRI(0461)= 2048,
  NRGRI(0462)= 2048,
  NRGRI(0463)= 2048,
  NRGRI(0464)= 2048,
  NRGRI(0465)= 2048,
  NRGRI(0466)= 2048,
  NRGRI(0467)= 2048,
  NRGRI(0468)= 2048,
  NRGRI(0469)= 2048,
  NRGRI(0470)= 2048,
  NRGRI(0471)= 2048,
  NRGRI(0472)= 2048,
  NRGRI(0473)= 2048,
  NRGRI(0474)= 2048,
  NRGRI(0475)= 2048,
  NRGRI(0476)= 2048,
  NRGRI(0477)= 2048,
  NRGRI(0478)= 2048,
  NRGRI(0479)= 2048,
  NRGRI(0480)= 2048,
  NRGRI(0481)= 2048,
  NRGRI(0482)= 2048,
  NRGRI(0483)= 2048,
  NRGRI(0484)= 2048,
  NRGRI(0485)= 2048,
  NRGRI(0486)= 2048,
  NRGRI(0487)= 2048,
  NRGRI(0488)= 2048,
  NRGRI(0489)= 2048,
  NRGRI(0490)= 2048,
  NRGRI(0491)= 2048,
  NRGRI(0492)= 2048,
  NRGRI(0493)= 2048,
  NRGRI(0494)= 2048,
  NRGRI(0495)= 2048,
  NRGRI(0496)= 2048,
  NRGRI(0497)= 2048,
  NRGRI(0498)= 2048,
  NRGRI(0499)= 2048,
  NRGRI(0500)= 2048,
  NRGRI(0501)= 2048,
  NRGRI(0502)= 2048,
  NRGRI(0503)= 2048,
  NRGRI(0504)= 2048,
  NRGRI(0505)= 2048,
  NRGRI(0506)= 2048,
  NRGRI(0507)= 2048,
  NRGRI(0508)= 2048,
  NRGRI(0509)= 2048,
  NRGRI(0510)= 2048,
  NRGRI(0511)= 2048,
  NRGRI(0512)= 2048,
  NRGRI(0513)= 2048,
  NRGRI(0514)= 2048,
  NRGRI(0515)= 2048,
  NRGRI(0516)= 2048,
  NRGRI(0517)= 2048,
  NRGRI(0518)= 2048,
  NRGRI(0519)= 2048,
  NRGRI(0520)= 2048,
  NRGRI(0521)= 2048,
  NRGRI(0522)= 2048,
  NRGRI(0523)= 2048,
  NRGRI(0524)= 2048,
  NRGRI(0525)= 2048,
  NRGRI(0526)= 2048,
  NRGRI(0527)= 2048,
  NRGRI(0528)= 2048,
  NRGRI(0529)= 2048,
  NRGRI(0530)= 2048,
  NRGRI(0531)= 2048,
  NRGRI(0532)= 2048,
  NRGRI(0533)= 2048,
  NRGRI(0534)= 2048,
  NRGRI(0535)= 2048,
  NRGRI(0536)= 2048,
  NRGRI(0537)= 2048,
  NRGRI(0538)= 2048,
  NRGRI(0539)= 2048,
  NRGRI(0540)= 2048,
  NRGRI(0541)= 2048,
  NRGRI(0542)= 2048,
  NRGRI(0543)= 2048,
  NRGRI(0544)= 2048,
  NRGRI(0545)= 2048,
  NRGRI(0546)= 2048,
  NRGRI(0547)= 2048,
  NRGRI(0548)= 2048,
  NRGRI(0549)= 2048,
  NRGRI(0550)= 2048,
  NRGRI(0551)= 2048,
  NRGRI(0552)= 2048,
  NRGRI(0553)= 2048,
  NRGRI(0554)= 2048,
  NRGRI(0555)= 2048,
  NRGRI(0556)= 2048,
  NRGRI(0557)= 2048,
  NRGRI(0558)= 2048,
  NRGRI(0559)= 2048,
  NRGRI(0560)= 2048,
  NRGRI(0561)= 2048,
  NRGRI(0562)= 2048,
  NRGRI(0563)= 2048,
  NRGRI(0564)= 2048,
  NRGRI(0565)= 2048,
  NRGRI(0566)= 2048,
  NRGRI(0567)= 2048,
  NRGRI(0568)= 2048,
  NRGRI(0569)= 2048,
  NRGRI(0570)= 2048,
  NRGRI(0571)= 2048,
  NRGRI(0572)= 2048,
  NRGRI(0573)= 2048,
  NRGRI(0574)= 2048,
  NRGRI(0575)= 2048,
  NRGRI(0576)= 2048,
  NRGRI(0577)= 2025,
  NRGRI(0578)= 2025,
  NRGRI(0579)= 2025,
  NRGRI(0580)= 2025,
  NRGRI(0581)= 2025,
  NRGRI(0582)= 2025,
  NRGRI(0583)= 2025,
  NRGRI(0584)= 2025,
  NRGRI(0585)= 2025,
  NRGRI(0586)= 2025,
  NRGRI(0587)= 2025,
  NRGRI(0588)= 2025,
  NRGRI(0589)= 2025,
  NRGRI(0590)= 2025,
  NRGRI(0591)= 2025,
  NRGRI(0592)= 2025,
  NRGRI(0593)= 2025,
  NRGRI(0594)= 2025,
  NRGRI(0595)= 2000,
  NRGRI(0596)= 2000,
  NRGRI(0597)= 2000,
  NRGRI(0598)= 2000,
  NRGRI(0599)= 2000,
  NRGRI(0600)= 2000,
  NRGRI(0601)= 2000,
  NRGRI(0602)= 2000,
  NRGRI(0603)= 2000,
  NRGRI(0604)= 2000,
  NRGRI(0605)= 2000,
  NRGRI(0606)= 2000,
  NRGRI(0607)= 2000,
  NRGRI(0608)= 2000,
  NRGRI(0609)= 2000,
  NRGRI(0610)= 2000,
  NRGRI(0611)= 2000,
  NRGRI(0612)= 2000,
  NRGRI(0613)= 2000,
  NRGRI(0614)= 2000,
  NRGRI(0615)= 2000,
  NRGRI(0616)= 2000,
  NRGRI(0617)= 2000,
  NRGRI(0618)= 2000,
  NRGRI(0619)= 2000,
  NRGRI(0620)= 2000,
  NRGRI(0621)= 2000,
  NRGRI(0622)= 2000,
  NRGRI(0623)= 2000,
  NRGRI(0624)= 2000,
  NRGRI(0625)= 2000,
  NRGRI(0626)= 2000,
  NRGRI(0627)= 1944,
  NRGRI(0628)= 1944,
  NRGRI(0629)= 1944,
  NRGRI(0630)= 1944,
  NRGRI(0631)= 1944,
  NRGRI(0632)= 1944,
  NRGRI(0633)= 1944,
  NRGRI(0634)= 1944,
  NRGRI(0635)= 1944,
  NRGRI(0636)= 1944,
  NRGRI(0637)= 1944,
  NRGRI(0638)= 1920,
  NRGRI(0639)= 1920,
  NRGRI(0640)= 1920,
  NRGRI(0641)= 1920,
  NRGRI(0642)= 1920,
  NRGRI(0643)= 1920,
  NRGRI(0644)= 1920,
  NRGRI(0645)= 1920,
  NRGRI(0646)= 1920,
  NRGRI(0647)= 1920,
  NRGRI(0648)= 1920,
  NRGRI(0649)= 1920,
  NRGRI(0650)= 1920,
  NRGRI(0651)= 1920,
  NRGRI(0652)= 1920,
  NRGRI(0653)= 1920,
  NRGRI(0654)= 1920,
  NRGRI(0655)= 1920,
  NRGRI(0656)= 1875,
  NRGRI(0657)= 1875,
  NRGRI(0658)= 1875,
  NRGRI(0659)= 1875,
  NRGRI(0660)= 1875,
  NRGRI(0661)= 1875,
  NRGRI(0662)= 1875,
  NRGRI(0663)= 1875,
  NRGRI(0664)= 1875,
  NRGRI(0665)= 1875,
  NRGRI(0666)= 1875,
  NRGRI(0667)= 1875,
  NRGRI(0668)= 1875,
  NRGRI(0669)= 1875,
  NRGRI(0670)= 1875,
  NRGRI(0671)= 1875,
  NRGRI(0672)= 1875,
  NRGRI(0673)= 1875,
  NRGRI(0674)= 1875,
  NRGRI(0675)= 1875,
  NRGRI(0676)= 1875,
  NRGRI(0677)= 1875,
  NRGRI(0678)= 1875,
  NRGRI(0679)= 1875,
  NRGRI(0680)= 1875,
  NRGRI(0681)= 1875,
  NRGRI(0682)= 1800,
  NRGRI(0683)= 1800,
  NRGRI(0684)= 1800,
  NRGRI(0685)= 1800,
  NRGRI(0686)= 1800,
  NRGRI(0687)= 1800,
  NRGRI(0688)= 1800,
  NRGRI(0689)= 1800,
  NRGRI(0690)= 1800,
  NRGRI(0691)= 1800,
  NRGRI(0692)= 1800,
  NRGRI(0693)= 1800,
  NRGRI(0694)= 1800,
  NRGRI(0695)= 1800,
  NRGRI(0696)= 1800,
  NRGRI(0697)= 1800,
  NRGRI(0698)= 1800,
  NRGRI(0699)= 1800,
  NRGRI(0700)= 1800,
  NRGRI(0701)= 1800,
  NRGRI(0702)= 1800,
  NRGRI(0703)= 1800,
  NRGRI(0704)= 1728,
  NRGRI(0705)= 1728,
  NRGRI(0706)= 1728,
  NRGRI(0707)= 1728,
  NRGRI(0708)= 1728,
  NRGRI(0709)= 1728,
  NRGRI(0710)= 1728,
  NRGRI(0711)= 1728,
  NRGRI(0712)= 1728,
  NRGRI(0713)= 1728,
  NRGRI(0714)= 1728,
  NRGRI(0715)= 1728,
  NRGRI(0716)= 1728,
  NRGRI(0717)= 1728,
  NRGRI(0718)= 1728,
  NRGRI(0719)= 1728,
  NRGRI(0720)= 1728,
  NRGRI(0721)= 1728,
  NRGRI(0722)= 1728,
  NRGRI(0723)= 1728,
  NRGRI(0724)= 1728,
  NRGRI(0725)= 1728,
  NRGRI(0726)= 1728,
  NRGRI(0727)= 1728,
  NRGRI(0728)= 1728,
  NRGRI(0729)= 1728,
  NRGRI(0730)= 1728,
  NRGRI(0731)= 1728,
  NRGRI(0732)= 1728,
  NRGRI(0733)= 1728,
  NRGRI(0734)= 1620,
  NRGRI(0735)= 1620,
  NRGRI(0736)= 1620,
  NRGRI(0737)= 1620,
  NRGRI(0738)= 1600,
  NRGRI(0739)= 1600,
  NRGRI(0740)= 1600,
  NRGRI(0741)= 1600,
  NRGRI(0742)= 1600,
  NRGRI(0743)= 1600,
  NRGRI(0744)= 1600,
  NRGRI(0745)= 1600,
  NRGRI(0746)= 1600,
  NRGRI(0747)= 1600,
  NRGRI(0748)= 1600,
  NRGRI(0749)= 1600,
  NRGRI(0750)= 1600,
  NRGRI(0751)= 1600,
  NRGRI(0752)= 1600,
  NRGRI(0753)= 1600,
  NRGRI(0754)= 1536,
  NRGRI(0755)= 1536,
  NRGRI(0756)= 1536,
  NRGRI(0757)= 1536,
  NRGRI(0758)= 1536,
  NRGRI(0759)= 1536,
  NRGRI(0760)= 1536,
  NRGRI(0761)= 1536,
  NRGRI(0762)= 1500,
  NRGRI(0763)= 1500,
  NRGRI(0764)= 1500,
  NRGRI(0765)= 1500,
  NRGRI(0766)= 1500,
  NRGRI(0767)= 1500,
  NRGRI(0768)= 1500,
  NRGRI(0769)= 1500,
  NRGRI(0770)= 1500,
  NRGRI(0771)= 1500,
  NRGRI(0772)= 1458,
  NRGRI(0773)= 1458,
  NRGRI(0774)= 1458,
  NRGRI(0775)= 1458,
  NRGRI(0776)= 1440,
  NRGRI(0777)= 1440,
  NRGRI(0778)= 1440,
  NRGRI(0779)= 1440,
  NRGRI(0780)= 1440,
  NRGRI(0781)= 1440,
  NRGRI(0782)= 1440,
  NRGRI(0783)= 1440,
  NRGRI(0784)= 1440,
  NRGRI(0785)= 1440,
  NRGRI(0786)= 1440,
  NRGRI(0787)= 1440,
  NRGRI(0788)= 1440,
  NRGRI(0789)= 1440,
  NRGRI(0790)= 1440,
  NRGRI(0791)= 1440,
  NRGRI(0792)= 1440,
  NRGRI(0793)= 1440,
  NRGRI(0794)= 1440,
  NRGRI(0795)= 1350,
  NRGRI(0796)= 1350,
  NRGRI(0797)= 1350,
  NRGRI(0798)= 1350,
  NRGRI(0799)= 1350,
  NRGRI(0800)= 1350,
  NRGRI(0801)= 1350,
  NRGRI(0802)= 1350,
  NRGRI(0803)= 1350,
  NRGRI(0804)= 1350,
  NRGRI(0805)= 1350,
  NRGRI(0806)= 1296,
  NRGRI(0807)= 1296,
  NRGRI(0808)= 1296,
  NRGRI(0809)= 1280,
  NRGRI(0810)= 1280,
  NRGRI(0811)= 1280,
  NRGRI(0812)= 1280,
  NRGRI(0813)= 1280,
  NRGRI(0814)= 1280,
  NRGRI(0815)= 1280,
  NRGRI(0816)= 1280,
  NRGRI(0817)= 1280,
  NRGRI(0818)= 1280,
  NRGRI(0819)= 1280,
  NRGRI(0820)= 1280,
  NRGRI(0821)= 1280,
  NRGRI(0822)= 1215,
  NRGRI(0823)= 1215,
  NRGRI(0824)= 1215,
  NRGRI(0825)= 1200,
  NRGRI(0826)= 1200,
  NRGRI(0827)= 1200,
  NRGRI(0828)= 1200,
  NRGRI(0829)= 1200,
  NRGRI(0830)= 1200,
  NRGRI(0831)= 1200,
  NRGRI(0832)= 1200,
  NRGRI(0833)= 1200,
  NRGRI(0834)= 1152,
  NRGRI(0835)= 1152,
  NRGRI(0836)= 1152,
  NRGRI(0837)= 1152,
  NRGRI(0838)= 1152,
  NRGRI(0839)= 1125,
  NRGRI(0840)= 1125,
  NRGRI(0841)= 1125,
  NRGRI(0842)= 1125,
  NRGRI(0843)= 1125,
  NRGRI(0844)= 1125,
  NRGRI(0845)= 1125,
  NRGRI(0846)= 1125,
  NRGRI(0847)= 1125,
  NRGRI(0848)= 1080,
  NRGRI(0849)= 1080,
  NRGRI(0850)= 1080,
  NRGRI(0851)= 1080,
  NRGRI(0852)= 1080,
  NRGRI(0853)= 1080,
  NRGRI(0854)= 1080,
  NRGRI(0855)= 1080,
  NRGRI(0856)= 1080,
  NRGRI(0857)= 1080,
  NRGRI(0858)= 1024,
  NRGRI(0859)= 1024,
  NRGRI(0860)= 1024,
  NRGRI(0861)= 1024,
  NRGRI(0862)= 1000,
  NRGRI(0863)= 1000,
  NRGRI(0864)= 1000,
  NRGRI(0865)= 1000,
  NRGRI(0866)= 1000,
  NRGRI(0867)=  972,
  NRGRI(0868)=  972,
  NRGRI(0869)=  960,
  NRGRI(0870)=  960,
  NRGRI(0871)=  960,
  NRGRI(0872)=  960,
  NRGRI(0873)=  960,
  NRGRI(0874)=  960,
  NRGRI(0875)=  960,
  NRGRI(0876)=  960,
  NRGRI(0877)=  960,
  NRGRI(0878)=  960,
  NRGRI(0879)=  960,
  NRGRI(0880)=  900,
  NRGRI(0881)=  900,
  NRGRI(0882)=  900,
  NRGRI(0883)=  900,
  NRGRI(0884)=  900,
  NRGRI(0885)=  900,
  NRGRI(0886)=  864,
  NRGRI(0887)=  864,
  NRGRI(0888)=  864,
  NRGRI(0889)=  864,
  NRGRI(0890)=  864,
  NRGRI(0891)=  864,
  NRGRI(0892)=  864,
  NRGRI(0893)=  864,
  NRGRI(0894)=  864,
  NRGRI(0895)=  864,
  NRGRI(0896)=  810,
  NRGRI(0897)=  800,
  NRGRI(0898)=  800,
  NRGRI(0899)=  800,
  NRGRI(0900)=  800,
  NRGRI(0901)=  800,
  NRGRI(0902)=  800,
  NRGRI(0903)=  768,
  NRGRI(0904)=  768,
  NRGRI(0905)=  768,
  NRGRI(0906)=  750,
  NRGRI(0907)=  750,
  NRGRI(0908)=  750,
  NRGRI(0909)=  729,
  NRGRI(0910)=  729,
  NRGRI(0911)=  720,
  NRGRI(0912)=  720,
  NRGRI(0913)=  720,
  NRGRI(0914)=  720,
  NRGRI(0915)=  720,
  NRGRI(0916)=  720,
  NRGRI(0917)=  720,
  NRGRI(0918)=  675,
  NRGRI(0919)=  675,
  NRGRI(0920)=  675,
  NRGRI(0921)=  675,
  NRGRI(0922)=  675,
  NRGRI(0923)=  648,
  NRGRI(0924)=  640,
  NRGRI(0925)=  640,
  NRGRI(0926)=  640,
  NRGRI(0927)=  640,
  NRGRI(0928)=  640,
  NRGRI(0929)=  640,
  NRGRI(0930)=  640,
  NRGRI(0931)=  600,
  NRGRI(0932)=  600,
  NRGRI(0933)=  600,
  NRGRI(0934)=  576,
  NRGRI(0935)=  576,
  NRGRI(0936)=  576,
  NRGRI(0937)=  576,
  NRGRI(0938)=  576,
  NRGRI(0939)=  576,
  NRGRI(0940)=  540,
  NRGRI(0941)=  540,
  NRGRI(0942)=  540,
  NRGRI(0943)=  540,
  NRGRI(0944)=  540,
  NRGRI(0945)=  512,
  NRGRI(0946)=  512,
  NRGRI(0947)=  500,
  NRGRI(0948)=  500,
  NRGRI(0949)=  486,
  NRGRI(0950)=  480,
  NRGRI(0951)=  480,
  NRGRI(0952)=  480,
  NRGRI(0953)=  480,
  NRGRI(0954)=  480,
  NRGRI(0955)=  450,
  NRGRI(0956)=  450,
  NRGRI(0957)=  450,
  NRGRI(0958)=  432,
  NRGRI(0959)=  432,
  NRGRI(0960)=  432,
  NRGRI(0961)=  432,
  NRGRI(0962)=  400,
  NRGRI(0963)=  400,
  NRGRI(0964)=  400,
  NRGRI(0965)=  384,
  NRGRI(0966)=  384,
  NRGRI(0967)=  375,
  NRGRI(0968)=  375,
  NRGRI(0969)=  360,
  NRGRI(0970)=  360,
  NRGRI(0971)=  360,
  NRGRI(0972)=  360,
  NRGRI(0973)=  360,
  NRGRI(0974)=  360,
  NRGRI(0975)=  320,
  NRGRI(0976)=  320,
  NRGRI(0977)=  320,
  NRGRI(0978)=  320,
  NRGRI(0979)=  300,
  NRGRI(0980)=  288,
  NRGRI(0981)=  288,
  NRGRI(0982)=  288,
  NRGRI(0983)=  270,
  NRGRI(0984)=  270,
  NRGRI(0985)=  256,
  NRGRI(0986)=  250,
  NRGRI(0987)=  243,
  NRGRI(0988)=  240,
  NRGRI(0989)=  240,
  NRGRI(0990)=  225,
  NRGRI(0991)=  225,
  NRGRI(0992)=  216,
  NRGRI(0993)=  216,
  NRGRI(0994)=  200,
  NRGRI(0995)=  192,
  NRGRI(0996)=  192,
  NRGRI(0997)=  180,
  NRGRI(0998)=  180,
  NRGRI(0999)=  180,
  NRGRI(1000)=  160,
  NRGRI(1001)=  160,
  NRGRI(1002)=  150,
  NRGRI(1003)=  144,
  NRGRI(1004)=  135,
  NRGRI(1005)=  128,
  NRGRI(1006)=  125,
  NRGRI(1007)=  120,
  NRGRI(1008)=  108,
  NRGRI(1009)=  100,
  NRGRI(1010)=   96,
  NRGRI(1011)=   96,
  NRGRI(1012)=   90,
  NRGRI(1013)=   81,
  NRGRI(1014)=   75,
  NRGRI(1015)=   72,
  NRGRI(1016)=   72,
  NRGRI(1017)=   60,
  NRGRI(1018)=   60,
  NRGRI(1019)=   50,
  NRGRI(1020)=   45,
  NRGRI(1021)=   40,
  NRGRI(1022)=   32,
  NRGRI(1023)=   25,
  NRGRI(1024)=   18,
 /
