&NAMRGRI
NRGRI(1)=18,
NRGRI(2)=25,
NRGRI(3)=36,
NRGRI(4)=40,
NRGRI(5)=45,
NRGRI(6)=54,
NRGRI(7)=60,
NRGRI(8)=64,
NRGRI(9)=72,
NRGRI(10)=72,
NRGRI(11)=80,
NRGRI(12)=90,
NRGRI(13)=96,
NRGRI(14)=100,
NRGRI(15)=108,
NRGRI(16)=120,
NRGRI(17)=120,
NRGRI(18)=128,
NRGRI(19)=135,
NRGRI(20)=144,
NRGRI(21)=144,
NRGRI(22)=150,
NRGRI(23)=160,
NRGRI(24)=160,
NRGRI(25)=180,
NRGRI(26)=180,
NRGRI(27)=180,
NRGRI(28)=192,
NRGRI(29)=192,
NRGRI(30)=200,
NRGRI(31)=200,
NRGRI(32)=216,
NRGRI(33)=216,
NRGRI(34)=216,
NRGRI(35)=225,
NRGRI(36)=225,
NRGRI(37)=240,
NRGRI(38)=240,
NRGRI(39)=240,
NRGRI(40)=256,
NRGRI(41)=256,
NRGRI(42)=256,
NRGRI(43)=256,
NRGRI(44)=288,
NRGRI(45)=288,
NRGRI(46)=288,
NRGRI(47)=288,
NRGRI(48)=288,
NRGRI(49)=288,
NRGRI(50)=288,
NRGRI(51)=288,
NRGRI(52)=288,
NRGRI(53)=300,
NRGRI(54)=300,
NRGRI(55)=300,
NRGRI(56)=300,
NRGRI(57)=320,
NRGRI(58)=320,
NRGRI(59)=320,
NRGRI(60)=320,
NRGRI(61)=320,
NRGRI(62)=320,
NRGRI(63)=320,
NRGRI(64)=320,
NRGRI(65)=320,
NRGRI(66)=320,
NRGRI(67)=320,
NRGRI(68)=320,
NRGRI(69)=320,
NRGRI(70)=320,
NRGRI(71)=320,
NRGRI(72)=320,
NRGRI(73)=320,
NRGRI(74)=320,
NRGRI(75)=320,
NRGRI(76)=320,
NRGRI(77)=320,
NRGRI(78)=320,
NRGRI(79)=320,
NRGRI(80)=320,
NRGRI(81)=320,
NRGRI(82)=320,
NRGRI(83)=320,
NRGRI(84)=320,
NRGRI(85)=320,
NRGRI(86)=320,
NRGRI(87)=320,
NRGRI(88)=320,
NRGRI(89)=320,
NRGRI(90)=320,
NRGRI(91)=320,
NRGRI(92)=320,
NRGRI(93)=320,
NRGRI(94)=320,
NRGRI(95)=320,
NRGRI(96)=320,
NRGRI(97)=320,
NRGRI(98)=320,
NRGRI(99)=320,
NRGRI(100)=320,
NRGRI(101)=320,
NRGRI(102)=320,
NRGRI(103)=320,
NRGRI(104)=320,
NRGRI(105)=300,
NRGRI(106)=300,
NRGRI(107)=300,
NRGRI(108)=300,
NRGRI(109)=288,
NRGRI(110)=288,
NRGRI(111)=288,
NRGRI(112)=288,
NRGRI(113)=288,
NRGRI(114)=288,
NRGRI(115)=288,
NRGRI(116)=288,
NRGRI(117)=288,
NRGRI(118)=256,
NRGRI(119)=256,
NRGRI(120)=256,
NRGRI(121)=256,
NRGRI(122)=240,
NRGRI(123)=240,
NRGRI(124)=240,
NRGRI(125)=225,
NRGRI(126)=225,
NRGRI(127)=216,
NRGRI(128)=216,
NRGRI(129)=216,
NRGRI(130)=200,
NRGRI(131)=200,
NRGRI(132)=192,
NRGRI(133)=192,
NRGRI(134)=180,
NRGRI(135)=180,
NRGRI(136)=180,
NRGRI(137)=160,
NRGRI(138)=160,
NRGRI(139)=150,
NRGRI(140)=144,
NRGRI(141)=144,
NRGRI(142)=135,
NRGRI(143)=128,
NRGRI(144)=120,
NRGRI(145)=120,
NRGRI(146)=108,
NRGRI(147)=100,
NRGRI(148)=96,
NRGRI(149)=90,
NRGRI(150)=80,
NRGRI(151)=72,
NRGRI(152)=72,
NRGRI(153)=64,
NRGRI(154)=60,
NRGRI(155)=54,
NRGRI(156)=45,
NRGRI(157)=40,
NRGRI(158)=36,
NRGRI(159)=25,
NRGRI(160)=18,
/
