 &NAMRGRI
  NRGRI(0001)=   18,
  NRGRI(0002)=   25,
  NRGRI(0003)=   32,
  NRGRI(0004)=   40,
  NRGRI(0005)=   45,
  NRGRI(0006)=   50,
  NRGRI(0007)=   60,
  NRGRI(0008)=   60,
  NRGRI(0009)=   72,
  NRGRI(0010)=   72,
  NRGRI(0011)=   75,
  NRGRI(0012)=   81,
  NRGRI(0013)=   90,
  NRGRI(0014)=   96,
  NRGRI(0015)=  100,
  NRGRI(0016)=  108,
  NRGRI(0017)=  120,
  NRGRI(0018)=  120,
  NRGRI(0019)=  125,
  NRGRI(0020)=  128,
  NRGRI(0021)=  144,
  NRGRI(0022)=  144,
  NRGRI(0023)=  150,
  NRGRI(0024)=  160,
  NRGRI(0025)=  160,
  NRGRI(0026)=  180,
  NRGRI(0027)=  180,
  NRGRI(0028)=  192,
  NRGRI(0029)=  192,
  NRGRI(0030)=  200,
  NRGRI(0031)=  200,
  NRGRI(0032)=  216,
  NRGRI(0033)=  216,
  NRGRI(0034)=  225,
  NRGRI(0035)=  240,
  NRGRI(0036)=  240,
  NRGRI(0037)=  240,
  NRGRI(0038)=  250,
  NRGRI(0039)=  250,
  NRGRI(0040)=  256,
  NRGRI(0041)=  270,
  NRGRI(0042)=  288,
  NRGRI(0043)=  288,
  NRGRI(0044)=  288,
  NRGRI(0045)=  300,
  NRGRI(0046)=  300,
  NRGRI(0047)=  320,
  NRGRI(0048)=  320,
  NRGRI(0049)=  320,
  NRGRI(0050)=  324,
  NRGRI(0051)=  360,
  NRGRI(0052)=  360,
  NRGRI(0053)=  360,
  NRGRI(0054)=  360,
  NRGRI(0055)=  360,
  NRGRI(0056)=  360,
  NRGRI(0057)=  375,
  NRGRI(0058)=  375,
  NRGRI(0059)=  384,
  NRGRI(0060)=  400,
  NRGRI(0061)=  400,
  NRGRI(0062)=  400,
  NRGRI(0063)=  405,
  NRGRI(0064)=  432,
  NRGRI(0065)=  432,
  NRGRI(0066)=  432,
  NRGRI(0067)=  432,
  NRGRI(0068)=  450,
  NRGRI(0069)=  450,
  NRGRI(0070)=  450,
  NRGRI(0071)=  480,
  NRGRI(0072)=  480,
  NRGRI(0073)=  480,
  NRGRI(0074)=  480,
  NRGRI(0075)=  480,
  NRGRI(0076)=  486,
  NRGRI(0077)=  500,
  NRGRI(0078)=  500,
  NRGRI(0079)=  512,
  NRGRI(0080)=  512,
  NRGRI(0081)=  540,
  NRGRI(0082)=  540,
  NRGRI(0083)=  540,
  NRGRI(0084)=  540,
  NRGRI(0085)=  540,
  NRGRI(0086)=  576,
  NRGRI(0087)=  576,
  NRGRI(0088)=  576,
  NRGRI(0089)=  576,
  NRGRI(0090)=  576,
  NRGRI(0091)=  576,
  NRGRI(0092)=  600,
  NRGRI(0093)=  600,
  NRGRI(0094)=  600,
  NRGRI(0095)=  600,
  NRGRI(0096)=  640,
  NRGRI(0097)=  640,
  NRGRI(0098)=  640,
  NRGRI(0099)=  640,
  NRGRI(0100)=  640,
  NRGRI(0101)=  640,
  NRGRI(0102)=  640,
  NRGRI(0103)=  648,
  NRGRI(0104)=  675,
  NRGRI(0105)=  675,
  NRGRI(0106)=  675,
  NRGRI(0107)=  675,
  NRGRI(0108)=  675,
  NRGRI(0109)=  720,
  NRGRI(0110)=  720,
  NRGRI(0111)=  720,
  NRGRI(0112)=  720,
  NRGRI(0113)=  720,
  NRGRI(0114)=  720,
  NRGRI(0115)=  720,
  NRGRI(0116)=  729,
  NRGRI(0117)=  729,
  NRGRI(0118)=  750,
  NRGRI(0119)=  750,
  NRGRI(0120)=  750,
  NRGRI(0121)=  750,
  NRGRI(0122)=  768,
  NRGRI(0123)=  768,
  NRGRI(0124)=  768,
  NRGRI(0125)=  800,
  NRGRI(0126)=  800,
  NRGRI(0127)=  800,
  NRGRI(0128)=  800,
  NRGRI(0129)=  800,
  NRGRI(0130)=  800,
  NRGRI(0131)=  810,
  NRGRI(0132)=  864,
  NRGRI(0133)=  864,
  NRGRI(0134)=  864,
  NRGRI(0135)=  864,
  NRGRI(0136)=  864,
  NRGRI(0137)=  864,
  NRGRI(0138)=  864,
  NRGRI(0139)=  864,
  NRGRI(0140)=  864,
  NRGRI(0141)=  864,
  NRGRI(0142)=  900,
  NRGRI(0143)=  900,
  NRGRI(0144)=  900,
  NRGRI(0145)=  900,
  NRGRI(0146)=  900,
  NRGRI(0147)=  900,
  NRGRI(0148)=  900,
  NRGRI(0149)=  960,
  NRGRI(0150)=  960,
  NRGRI(0151)=  960,
  NRGRI(0152)=  960,
  NRGRI(0153)=  960,
  NRGRI(0154)=  960,
  NRGRI(0155)=  960,
  NRGRI(0156)=  960,
  NRGRI(0157)=  960,
  NRGRI(0158)=  960,
  NRGRI(0159)=  960,
  NRGRI(0160)=  960,
  NRGRI(0161)=  972,
  NRGRI(0162)=  972,
  NRGRI(0163)= 1000,
  NRGRI(0164)= 1000,
  NRGRI(0165)= 1000,
  NRGRI(0166)= 1000,
  NRGRI(0167)= 1000,
  NRGRI(0168)= 1000,
  NRGRI(0169)= 1024,
  NRGRI(0170)= 1024,
  NRGRI(0171)= 1024,
  NRGRI(0172)= 1024,
  NRGRI(0173)= 1024,
  NRGRI(0174)= 1080,
  NRGRI(0175)= 1080,
  NRGRI(0176)= 1080,
  NRGRI(0177)= 1080,
  NRGRI(0178)= 1080,
  NRGRI(0179)= 1080,
  NRGRI(0180)= 1080,
  NRGRI(0181)= 1080,
  NRGRI(0182)= 1080,
  NRGRI(0183)= 1080,
  NRGRI(0184)= 1080,
  NRGRI(0185)= 1125,
  NRGRI(0186)= 1125,
  NRGRI(0187)= 1125,
  NRGRI(0188)= 1125,
  NRGRI(0189)= 1125,
  NRGRI(0190)= 1125,
  NRGRI(0191)= 1125,
  NRGRI(0192)= 1125,
  NRGRI(0193)= 1125,
  NRGRI(0194)= 1152,
  NRGRI(0195)= 1152,
  NRGRI(0196)= 1152,
  NRGRI(0197)= 1152,
  NRGRI(0198)= 1152,
  NRGRI(0199)= 1152,
  NRGRI(0200)= 1200,
  NRGRI(0201)= 1200,
  NRGRI(0202)= 1200,
  NRGRI(0203)= 1200,
  NRGRI(0204)= 1200,
  NRGRI(0205)= 1200,
  NRGRI(0206)= 1200,
  NRGRI(0207)= 1200,
  NRGRI(0208)= 1200,
  NRGRI(0209)= 1200,
  NRGRI(0210)= 1200,
  NRGRI(0211)= 1215,
  NRGRI(0212)= 1215,
  NRGRI(0213)= 1215,
  NRGRI(0214)= 1215,
  NRGRI(0215)= 1280,
  NRGRI(0216)= 1280,
  NRGRI(0217)= 1280,
  NRGRI(0218)= 1280,
  NRGRI(0219)= 1280,
  NRGRI(0220)= 1280,
  NRGRI(0221)= 1280,
  NRGRI(0222)= 1280,
  NRGRI(0223)= 1280,
  NRGRI(0224)= 1280,
  NRGRI(0225)= 1280,
  NRGRI(0226)= 1280,
  NRGRI(0227)= 1280,
  NRGRI(0228)= 1280,
  NRGRI(0229)= 1280,
  NRGRI(0230)= 1280,
  NRGRI(0231)= 1296,
  NRGRI(0232)= 1296,
  NRGRI(0233)= 1296,
  NRGRI(0234)= 1296,
  NRGRI(0235)= 1350,
  NRGRI(0236)= 1350,
  NRGRI(0237)= 1350,
  NRGRI(0238)= 1350,
  NRGRI(0239)= 1350,
  NRGRI(0240)= 1350,
  NRGRI(0241)= 1350,
  NRGRI(0242)= 1350,
  NRGRI(0243)= 1350,
  NRGRI(0244)= 1350,
  NRGRI(0245)= 1350,
  NRGRI(0246)= 1350,
  NRGRI(0247)= 1350,
  NRGRI(0248)= 1350,
  NRGRI(0249)= 1350,
  NRGRI(0250)= 1440,
  NRGRI(0251)= 1440,
  NRGRI(0252)= 1440,
  NRGRI(0253)= 1440,
  NRGRI(0254)= 1440,
  NRGRI(0255)= 1440,
  NRGRI(0256)= 1440,
  NRGRI(0257)= 1440,
  NRGRI(0258)= 1440,
  NRGRI(0259)= 1440,
  NRGRI(0260)= 1440,
  NRGRI(0261)= 1440,
  NRGRI(0262)= 1440,
  NRGRI(0263)= 1440,
  NRGRI(0264)= 1440,
  NRGRI(0265)= 1440,
  NRGRI(0266)= 1440,
  NRGRI(0267)= 1440,
  NRGRI(0268)= 1440,
  NRGRI(0269)= 1440,
  NRGRI(0270)= 1440,
  NRGRI(0271)= 1440,
  NRGRI(0272)= 1440,
  NRGRI(0273)= 1440,
  NRGRI(0274)= 1440,
  NRGRI(0275)= 1440,
  NRGRI(0276)= 1440,
  NRGRI(0277)= 1440,
  NRGRI(0278)= 1458,
  NRGRI(0279)= 1458,
  NRGRI(0280)= 1458,
  NRGRI(0281)= 1458,
  NRGRI(0282)= 1458,
  NRGRI(0283)= 1458,
  NRGRI(0284)= 1458,
  NRGRI(0285)= 1500,
  NRGRI(0286)= 1500,
  NRGRI(0287)= 1500,
  NRGRI(0288)= 1500,
  NRGRI(0289)= 1500,
  NRGRI(0290)= 1500,
  NRGRI(0291)= 1500,
  NRGRI(0292)= 1500,
  NRGRI(0293)= 1500,
  NRGRI(0294)= 1500,
  NRGRI(0295)= 1500,
  NRGRI(0296)= 1500,
  NRGRI(0297)= 1500,
  NRGRI(0298)= 1500,
  NRGRI(0299)= 1500,
  NRGRI(0300)= 1500,
  NRGRI(0301)= 1500,
  NRGRI(0302)= 1536,
  NRGRI(0303)= 1536,
  NRGRI(0304)= 1536,
  NRGRI(0305)= 1536,
  NRGRI(0306)= 1536,
  NRGRI(0307)= 1536,
  NRGRI(0308)= 1536,
  NRGRI(0309)= 1536,
  NRGRI(0310)= 1536,
  NRGRI(0311)= 1536,
  NRGRI(0312)= 1536,
  NRGRI(0313)= 1536,
  NRGRI(0314)= 1536,
  NRGRI(0315)= 1536,
  NRGRI(0316)= 1536,
  NRGRI(0317)= 1536,
  NRGRI(0318)= 1600,
  NRGRI(0319)= 1600,
  NRGRI(0320)= 1600,
  NRGRI(0321)= 1600,
  NRGRI(0322)= 1600,
  NRGRI(0323)= 1600,
  NRGRI(0324)= 1600,
  NRGRI(0325)= 1600,
  NRGRI(0326)= 1600,
  NRGRI(0327)= 1600,
  NRGRI(0328)= 1600,
  NRGRI(0329)= 1600,
  NRGRI(0330)= 1600,
  NRGRI(0331)= 1600,
  NRGRI(0332)= 1600,
  NRGRI(0333)= 1600,
  NRGRI(0334)= 1600,
  NRGRI(0335)= 1600,
  NRGRI(0336)= 1600,
  NRGRI(0337)= 1600,
  NRGRI(0338)= 1600,
  NRGRI(0339)= 1600,
  NRGRI(0340)= 1600,
  NRGRI(0341)= 1600,
  NRGRI(0342)= 1600,
  NRGRI(0343)= 1600,
  NRGRI(0344)= 1600,
  NRGRI(0345)= 1600,
  NRGRI(0346)= 1600,
  NRGRI(0347)= 1600,
  NRGRI(0348)= 1600,
  NRGRI(0349)= 1600,
  NRGRI(0350)= 1600,
  NRGRI(0351)= 1600,
  NRGRI(0352)= 1600,
  NRGRI(0353)= 1600,
  NRGRI(0354)= 1600,
  NRGRI(0355)= 1600,
  NRGRI(0356)= 1600,
  NRGRI(0357)= 1600,
  NRGRI(0358)= 1600,
  NRGRI(0359)= 1600,
  NRGRI(0360)= 1600,
  NRGRI(0361)= 1600,
  NRGRI(0362)= 1600,
  NRGRI(0363)= 1600,
  NRGRI(0364)= 1600,
  NRGRI(0365)= 1600,
  NRGRI(0366)= 1600,
  NRGRI(0367)= 1600,
  NRGRI(0368)= 1600,
  NRGRI(0369)= 1600,
  NRGRI(0370)= 1600,
  NRGRI(0371)= 1600,
  NRGRI(0372)= 1600,
  NRGRI(0373)= 1600,
  NRGRI(0374)= 1600,
  NRGRI(0375)= 1600,
  NRGRI(0376)= 1600,
  NRGRI(0377)= 1600,
  NRGRI(0378)= 1600,
  NRGRI(0379)= 1600,
  NRGRI(0380)= 1600,
  NRGRI(0381)= 1600,
  NRGRI(0382)= 1600,
  NRGRI(0383)= 1600,
  NRGRI(0384)= 1600,
  NRGRI(0385)= 1600,
  NRGRI(0386)= 1600,
  NRGRI(0387)= 1600,
  NRGRI(0388)= 1600,
  NRGRI(0389)= 1600,
  NRGRI(0390)= 1600,
  NRGRI(0391)= 1600,
  NRGRI(0392)= 1600,
  NRGRI(0393)= 1600,
  NRGRI(0394)= 1600,
  NRGRI(0395)= 1600,
  NRGRI(0396)= 1600,
  NRGRI(0397)= 1600,
  NRGRI(0398)= 1600,
  NRGRI(0399)= 1600,
  NRGRI(0400)= 1600,
  NRGRI(0401)= 1600,
  NRGRI(0402)= 1600,
  NRGRI(0403)= 1600,
  NRGRI(0404)= 1600,
  NRGRI(0405)= 1600,
  NRGRI(0406)= 1600,
  NRGRI(0407)= 1600,
  NRGRI(0408)= 1600,
  NRGRI(0409)= 1600,
  NRGRI(0410)= 1600,
  NRGRI(0411)= 1600,
  NRGRI(0412)= 1600,
  NRGRI(0413)= 1600,
  NRGRI(0414)= 1600,
  NRGRI(0415)= 1600,
  NRGRI(0416)= 1600,
  NRGRI(0417)= 1600,
  NRGRI(0418)= 1600,
  NRGRI(0419)= 1600,
  NRGRI(0420)= 1600,
  NRGRI(0421)= 1600,
  NRGRI(0422)= 1600,
  NRGRI(0423)= 1600,
  NRGRI(0424)= 1600,
  NRGRI(0425)= 1600,
  NRGRI(0426)= 1600,
  NRGRI(0427)= 1600,
  NRGRI(0428)= 1600,
  NRGRI(0429)= 1600,
  NRGRI(0430)= 1600,
  NRGRI(0431)= 1600,
  NRGRI(0432)= 1600,
  NRGRI(0433)= 1600,
  NRGRI(0434)= 1600,
  NRGRI(0435)= 1600,
  NRGRI(0436)= 1600,
  NRGRI(0437)= 1600,
  NRGRI(0438)= 1600,
  NRGRI(0439)= 1600,
  NRGRI(0440)= 1600,
  NRGRI(0441)= 1600,
  NRGRI(0442)= 1600,
  NRGRI(0443)= 1600,
  NRGRI(0444)= 1600,
  NRGRI(0445)= 1600,
  NRGRI(0446)= 1600,
  NRGRI(0447)= 1600,
  NRGRI(0448)= 1600,
  NRGRI(0449)= 1600,
  NRGRI(0450)= 1600,
  NRGRI(0451)= 1600,
  NRGRI(0452)= 1600,
  NRGRI(0453)= 1600,
  NRGRI(0454)= 1600,
  NRGRI(0455)= 1600,
  NRGRI(0456)= 1600,
  NRGRI(0457)= 1600,
  NRGRI(0458)= 1600,
  NRGRI(0459)= 1600,
  NRGRI(0460)= 1600,
  NRGRI(0461)= 1600,
  NRGRI(0462)= 1600,
  NRGRI(0463)= 1600,
  NRGRI(0464)= 1600,
  NRGRI(0465)= 1600,
  NRGRI(0466)= 1600,
  NRGRI(0467)= 1600,
  NRGRI(0468)= 1600,
  NRGRI(0469)= 1600,
  NRGRI(0470)= 1600,
  NRGRI(0471)= 1600,
  NRGRI(0472)= 1600,
  NRGRI(0473)= 1600,
  NRGRI(0474)= 1600,
  NRGRI(0475)= 1600,
  NRGRI(0476)= 1600,
  NRGRI(0477)= 1600,
  NRGRI(0478)= 1600,
  NRGRI(0479)= 1600,
  NRGRI(0480)= 1600,
  NRGRI(0481)= 1600,
  NRGRI(0482)= 1600,
  NRGRI(0483)= 1600,
  NRGRI(0484)= 1536,
  NRGRI(0485)= 1536,
  NRGRI(0486)= 1536,
  NRGRI(0487)= 1536,
  NRGRI(0488)= 1536,
  NRGRI(0489)= 1536,
  NRGRI(0490)= 1536,
  NRGRI(0491)= 1536,
  NRGRI(0492)= 1536,
  NRGRI(0493)= 1536,
  NRGRI(0494)= 1536,
  NRGRI(0495)= 1536,
  NRGRI(0496)= 1536,
  NRGRI(0497)= 1536,
  NRGRI(0498)= 1536,
  NRGRI(0499)= 1536,
  NRGRI(0500)= 1500,
  NRGRI(0501)= 1500,
  NRGRI(0502)= 1500,
  NRGRI(0503)= 1500,
  NRGRI(0504)= 1500,
  NRGRI(0505)= 1500,
  NRGRI(0506)= 1500,
  NRGRI(0507)= 1500,
  NRGRI(0508)= 1500,
  NRGRI(0509)= 1500,
  NRGRI(0510)= 1500,
  NRGRI(0511)= 1500,
  NRGRI(0512)= 1500,
  NRGRI(0513)= 1500,
  NRGRI(0514)= 1500,
  NRGRI(0515)= 1500,
  NRGRI(0516)= 1500,
  NRGRI(0517)= 1458,
  NRGRI(0518)= 1458,
  NRGRI(0519)= 1458,
  NRGRI(0520)= 1458,
  NRGRI(0521)= 1458,
  NRGRI(0522)= 1458,
  NRGRI(0523)= 1458,
  NRGRI(0524)= 1440,
  NRGRI(0525)= 1440,
  NRGRI(0526)= 1440,
  NRGRI(0527)= 1440,
  NRGRI(0528)= 1440,
  NRGRI(0529)= 1440,
  NRGRI(0530)= 1440,
  NRGRI(0531)= 1440,
  NRGRI(0532)= 1440,
  NRGRI(0533)= 1440,
  NRGRI(0534)= 1440,
  NRGRI(0535)= 1440,
  NRGRI(0536)= 1440,
  NRGRI(0537)= 1440,
  NRGRI(0538)= 1440,
  NRGRI(0539)= 1440,
  NRGRI(0540)= 1440,
  NRGRI(0541)= 1440,
  NRGRI(0542)= 1440,
  NRGRI(0543)= 1440,
  NRGRI(0544)= 1440,
  NRGRI(0545)= 1440,
  NRGRI(0546)= 1440,
  NRGRI(0547)= 1440,
  NRGRI(0548)= 1440,
  NRGRI(0549)= 1440,
  NRGRI(0550)= 1440,
  NRGRI(0551)= 1440,
  NRGRI(0552)= 1350,
  NRGRI(0553)= 1350,
  NRGRI(0554)= 1350,
  NRGRI(0555)= 1350,
  NRGRI(0556)= 1350,
  NRGRI(0557)= 1350,
  NRGRI(0558)= 1350,
  NRGRI(0559)= 1350,
  NRGRI(0560)= 1350,
  NRGRI(0561)= 1350,
  NRGRI(0562)= 1350,
  NRGRI(0563)= 1350,
  NRGRI(0564)= 1350,
  NRGRI(0565)= 1350,
  NRGRI(0566)= 1350,
  NRGRI(0567)= 1296,
  NRGRI(0568)= 1296,
  NRGRI(0569)= 1296,
  NRGRI(0570)= 1296,
  NRGRI(0571)= 1280,
  NRGRI(0572)= 1280,
  NRGRI(0573)= 1280,
  NRGRI(0574)= 1280,
  NRGRI(0575)= 1280,
  NRGRI(0576)= 1280,
  NRGRI(0577)= 1280,
  NRGRI(0578)= 1280,
  NRGRI(0579)= 1280,
  NRGRI(0580)= 1280,
  NRGRI(0581)= 1280,
  NRGRI(0582)= 1280,
  NRGRI(0583)= 1280,
  NRGRI(0584)= 1280,
  NRGRI(0585)= 1280,
  NRGRI(0586)= 1280,
  NRGRI(0587)= 1215,
  NRGRI(0588)= 1215,
  NRGRI(0589)= 1215,
  NRGRI(0590)= 1215,
  NRGRI(0591)= 1200,
  NRGRI(0592)= 1200,
  NRGRI(0593)= 1200,
  NRGRI(0594)= 1200,
  NRGRI(0595)= 1200,
  NRGRI(0596)= 1200,
  NRGRI(0597)= 1200,
  NRGRI(0598)= 1200,
  NRGRI(0599)= 1200,
  NRGRI(0600)= 1200,
  NRGRI(0601)= 1200,
  NRGRI(0602)= 1152,
  NRGRI(0603)= 1152,
  NRGRI(0604)= 1152,
  NRGRI(0605)= 1152,
  NRGRI(0606)= 1152,
  NRGRI(0607)= 1152,
  NRGRI(0608)= 1125,
  NRGRI(0609)= 1125,
  NRGRI(0610)= 1125,
  NRGRI(0611)= 1125,
  NRGRI(0612)= 1125,
  NRGRI(0613)= 1125,
  NRGRI(0614)= 1125,
  NRGRI(0615)= 1125,
  NRGRI(0616)= 1125,
  NRGRI(0617)= 1080,
  NRGRI(0618)= 1080,
  NRGRI(0619)= 1080,
  NRGRI(0620)= 1080,
  NRGRI(0621)= 1080,
  NRGRI(0622)= 1080,
  NRGRI(0623)= 1080,
  NRGRI(0624)= 1080,
  NRGRI(0625)= 1080,
  NRGRI(0626)= 1080,
  NRGRI(0627)= 1080,
  NRGRI(0628)= 1024,
  NRGRI(0629)= 1024,
  NRGRI(0630)= 1024,
  NRGRI(0631)= 1024,
  NRGRI(0632)= 1024,
  NRGRI(0633)= 1000,
  NRGRI(0634)= 1000,
  NRGRI(0635)= 1000,
  NRGRI(0636)= 1000,
  NRGRI(0637)= 1000,
  NRGRI(0638)= 1000,
  NRGRI(0639)=  972,
  NRGRI(0640)=  972,
  NRGRI(0641)=  960,
  NRGRI(0642)=  960,
  NRGRI(0643)=  960,
  NRGRI(0644)=  960,
  NRGRI(0645)=  960,
  NRGRI(0646)=  960,
  NRGRI(0647)=  960,
  NRGRI(0648)=  960,
  NRGRI(0649)=  960,
  NRGRI(0650)=  960,
  NRGRI(0651)=  960,
  NRGRI(0652)=  960,
  NRGRI(0653)=  900,
  NRGRI(0654)=  900,
  NRGRI(0655)=  900,
  NRGRI(0656)=  900,
  NRGRI(0657)=  900,
  NRGRI(0658)=  900,
  NRGRI(0659)=  900,
  NRGRI(0660)=  864,
  NRGRI(0661)=  864,
  NRGRI(0662)=  864,
  NRGRI(0663)=  864,
  NRGRI(0664)=  864,
  NRGRI(0665)=  864,
  NRGRI(0666)=  864,
  NRGRI(0667)=  864,
  NRGRI(0668)=  864,
  NRGRI(0669)=  864,
  NRGRI(0670)=  810,
  NRGRI(0671)=  800,
  NRGRI(0672)=  800,
  NRGRI(0673)=  800,
  NRGRI(0674)=  800,
  NRGRI(0675)=  800,
  NRGRI(0676)=  800,
  NRGRI(0677)=  768,
  NRGRI(0678)=  768,
  NRGRI(0679)=  768,
  NRGRI(0680)=  750,
  NRGRI(0681)=  750,
  NRGRI(0682)=  750,
  NRGRI(0683)=  750,
  NRGRI(0684)=  729,
  NRGRI(0685)=  729,
  NRGRI(0686)=  720,
  NRGRI(0687)=  720,
  NRGRI(0688)=  720,
  NRGRI(0689)=  720,
  NRGRI(0690)=  720,
  NRGRI(0691)=  720,
  NRGRI(0692)=  720,
  NRGRI(0693)=  675,
  NRGRI(0694)=  675,
  NRGRI(0695)=  675,
  NRGRI(0696)=  675,
  NRGRI(0697)=  675,
  NRGRI(0698)=  648,
  NRGRI(0699)=  640,
  NRGRI(0700)=  640,
  NRGRI(0701)=  640,
  NRGRI(0702)=  640,
  NRGRI(0703)=  640,
  NRGRI(0704)=  640,
  NRGRI(0705)=  640,
  NRGRI(0706)=  600,
  NRGRI(0707)=  600,
  NRGRI(0708)=  600,
  NRGRI(0709)=  600,
  NRGRI(0710)=  576,
  NRGRI(0711)=  576,
  NRGRI(0712)=  576,
  NRGRI(0713)=  576,
  NRGRI(0714)=  576,
  NRGRI(0715)=  576,
  NRGRI(0716)=  540,
  NRGRI(0717)=  540,
  NRGRI(0718)=  540,
  NRGRI(0719)=  540,
  NRGRI(0720)=  540,
  NRGRI(0721)=  512,
  NRGRI(0722)=  512,
  NRGRI(0723)=  500,
  NRGRI(0724)=  500,
  NRGRI(0725)=  486,
  NRGRI(0726)=  480,
  NRGRI(0727)=  480,
  NRGRI(0728)=  480,
  NRGRI(0729)=  480,
  NRGRI(0730)=  480,
  NRGRI(0731)=  450,
  NRGRI(0732)=  450,
  NRGRI(0733)=  450,
  NRGRI(0734)=  432,
  NRGRI(0735)=  432,
  NRGRI(0736)=  432,
  NRGRI(0737)=  432,
  NRGRI(0738)=  405,
  NRGRI(0739)=  400,
  NRGRI(0740)=  400,
  NRGRI(0741)=  400,
  NRGRI(0742)=  384,
  NRGRI(0743)=  375,
  NRGRI(0744)=  375,
  NRGRI(0745)=  360,
  NRGRI(0746)=  360,
  NRGRI(0747)=  360,
  NRGRI(0748)=  360,
  NRGRI(0749)=  360,
  NRGRI(0750)=  360,
  NRGRI(0751)=  324,
  NRGRI(0752)=  320,
  NRGRI(0753)=  320,
  NRGRI(0754)=  320,
  NRGRI(0755)=  300,
  NRGRI(0756)=  300,
  NRGRI(0757)=  288,
  NRGRI(0758)=  288,
  NRGRI(0759)=  288,
  NRGRI(0760)=  270,
  NRGRI(0761)=  256,
  NRGRI(0762)=  250,
  NRGRI(0763)=  250,
  NRGRI(0764)=  240,
  NRGRI(0765)=  240,
  NRGRI(0766)=  240,
  NRGRI(0767)=  225,
  NRGRI(0768)=  216,
  NRGRI(0769)=  216,
  NRGRI(0770)=  200,
  NRGRI(0771)=  200,
  NRGRI(0772)=  192,
  NRGRI(0773)=  192,
  NRGRI(0774)=  180,
  NRGRI(0775)=  180,
  NRGRI(0776)=  160,
  NRGRI(0777)=  160,
  NRGRI(0778)=  150,
  NRGRI(0779)=  144,
  NRGRI(0780)=  144,
  NRGRI(0781)=  128,
  NRGRI(0782)=  125,
  NRGRI(0783)=  120,
  NRGRI(0784)=  120,
  NRGRI(0785)=  108,
  NRGRI(0786)=  100,
  NRGRI(0787)=   96,
  NRGRI(0788)=   90,
  NRGRI(0789)=   81,
  NRGRI(0790)=   75,
  NRGRI(0791)=   72,
  NRGRI(0792)=   72,
  NRGRI(0793)=   60,
  NRGRI(0794)=   60,
  NRGRI(0795)=   50,
  NRGRI(0796)=   45,
  NRGRI(0797)=   40,
  NRGRI(0798)=   32,
  NRGRI(0799)=   25,
  NRGRI(0800)=   18,
 /
