 &NAMRGRI
  NRGRI(1)=   18,
  NRGRI(2)=   25,
  NRGRI(3)=   32,
  NRGRI(4)=   40,
  NRGRI(5)=   45,
  NRGRI(6)=   50,
  NRGRI(7)=   60,
  NRGRI(8)=   64,
  NRGRI(9)=   72,
  NRGRI(10)=   72,
  NRGRI(11)=   75,
  NRGRI(12)=   81,
  NRGRI(13)=   90,
  NRGRI(14)=   96,
  NRGRI(15)=  100,
  NRGRI(16)=  108,
  NRGRI(17)=  120,
  NRGRI(18)=  120,
  NRGRI(19)=  125,
  NRGRI(20)=  135,
  NRGRI(21)=  144,
  NRGRI(22)=  150,
  NRGRI(23)=  160,
  NRGRI(24)=  160,
  NRGRI(25)=  180,
  NRGRI(26)=  180,
  NRGRI(27)=  180,
  NRGRI(28)=  192,
  NRGRI(29)=  192,
  NRGRI(30)=  200,
  NRGRI(31)=  216,
  NRGRI(32)=  216,
  NRGRI(33)=  216,
  NRGRI(34)=  225,
  NRGRI(35)=  240,
  NRGRI(36)=  240,
  NRGRI(37)=  243,
  NRGRI(38)=  250,
  NRGRI(39)=  256,
  NRGRI(40)=  270,
  NRGRI(41)=  270,
  NRGRI(42)=  288,
  NRGRI(43)=  288,
  NRGRI(44)=  288,
  NRGRI(45)=  300,
  NRGRI(46)=  300,
  NRGRI(47)=  320,
  NRGRI(48)=  320,
  NRGRI(49)=  320,
  NRGRI(50)=  324,
  NRGRI(51)=  360,
  NRGRI(52)=  360,
  NRGRI(53)=  360,
  NRGRI(54)=  360,
  NRGRI(55)=  360,
  NRGRI(56)=  360,
  NRGRI(57)=  375,
  NRGRI(58)=  375,
  NRGRI(59)=  384,
  NRGRI(60)=  384,
  NRGRI(61)=  400,
  NRGRI(62)=  400,
  NRGRI(63)=  400,
  NRGRI(64)=  432,
  NRGRI(65)=  432,
  NRGRI(66)=  432,
  NRGRI(67)=  432,
  NRGRI(68)=  432,
  NRGRI(69)=  450,
  NRGRI(70)=  450,
  NRGRI(71)=  450,
  NRGRI(72)=  480,
  NRGRI(73)=  480,
  NRGRI(74)=  480,
  NRGRI(75)=  480,
  NRGRI(76)=  480,
  NRGRI(77)=  486,
  NRGRI(78)=  500,
  NRGRI(79)=  500,
  NRGRI(80)=  500,
  NRGRI(81)=  512,
  NRGRI(82)=  512,
  NRGRI(83)=  540,
  NRGRI(84)=  540,
  NRGRI(85)=  540,
  NRGRI(86)=  540,
  NRGRI(87)=  540,
  NRGRI(88)=  576,
  NRGRI(89)=  576,
  NRGRI(90)=  576,
  NRGRI(91)=  576,
  NRGRI(92)=  576,
  NRGRI(93)=  576,
  NRGRI(94)=  600,
  NRGRI(95)=  600,
  NRGRI(96)=  600,
  NRGRI(97)=  600,
  NRGRI(98)=  600,
  NRGRI(99)=  640,
  NRGRI(100)=  640,
  NRGRI(101)=  640,
  NRGRI(102)=  640,
  NRGRI(103)=  640,
  NRGRI(104)=  640,
  NRGRI(105)=  640,
  NRGRI(106)=  640,
  NRGRI(107)=  648,
  NRGRI(108)=  675,
  NRGRI(109)=  675,
  NRGRI(110)=  675,
  NRGRI(111)=  675,
  NRGRI(112)=  675,
  NRGRI(113)=  675,
  NRGRI(114)=  720,
  NRGRI(115)=  720,
  NRGRI(116)=  720,
  NRGRI(117)=  720,
  NRGRI(118)=  720,
  NRGRI(119)=  720,
  NRGRI(120)=  720,
  NRGRI(121)=  720,
  NRGRI(122)=  720,
  NRGRI(123)=  729,
  NRGRI(124)=  729,
  NRGRI(125)=  750,
  NRGRI(126)=  750,
  NRGRI(127)=  750,
  NRGRI(128)=  750,
  NRGRI(129)=  750,
  NRGRI(130)=  768,
  NRGRI(131)=  768,
  NRGRI(132)=  768,
  NRGRI(133)=  768,
  NRGRI(134)=  800,
  NRGRI(135)=  800,
  NRGRI(136)=  800,
  NRGRI(137)=  800,
  NRGRI(138)=  800,
  NRGRI(139)=  800,
  NRGRI(140)=  800,
  NRGRI(141)=  800,
  NRGRI(142)=  810,
  NRGRI(143)=  810,
  NRGRI(144)=  864,
  NRGRI(145)=  864,
  NRGRI(146)=  864,
  NRGRI(147)=  864,
  NRGRI(148)=  864,
  NRGRI(149)=  864,
  NRGRI(150)=  864,
  NRGRI(151)=  864,
  NRGRI(152)=  864,
  NRGRI(153)=  864,
  NRGRI(154)=  864,
  NRGRI(155)=  864,
  NRGRI(156)=  864,
  NRGRI(157)=  864,
  NRGRI(158)=  900,
  NRGRI(159)=  900,
  NRGRI(160)=  900,
  NRGRI(161)=  900,
  NRGRI(162)=  900,
  NRGRI(163)=  900,
  NRGRI(164)=  900,
  NRGRI(165)=  900,
  NRGRI(166)=  900,
  NRGRI(167)=  900,
  NRGRI(168)=  900,
  NRGRI(169)=  960,
  NRGRI(170)=  960,
  NRGRI(171)=  960,
  NRGRI(172)=  960,
  NRGRI(173)=  960,
  NRGRI(174)=  960,
  NRGRI(175)=  960,
  NRGRI(176)=  960,
  NRGRI(177)=  960,
  NRGRI(178)=  960,
  NRGRI(179)=  960,
  NRGRI(180)=  960,
  NRGRI(181)=  960,
  NRGRI(182)=  960,
  NRGRI(183)=  960,
  NRGRI(184)=  960,
  NRGRI(185)=  960,
  NRGRI(186)=  960,
  NRGRI(187)=  960,
  NRGRI(188)=  960,
  NRGRI(189)=  960,
  NRGRI(190)=  960,
  NRGRI(191)=  972,
  NRGRI(192)=  972,
  NRGRI(193)=  972,
  NRGRI(194)=  972,
  NRGRI(195)=  972,
  NRGRI(196)= 1000,
  NRGRI(197)= 1000,
  NRGRI(198)= 1000,
  NRGRI(199)= 1000,
  NRGRI(200)= 1000,
  NRGRI(201)= 1000,
  NRGRI(202)= 1000,
  NRGRI(203)= 1000,
  NRGRI(204)= 1000,
  NRGRI(205)= 1000,
  NRGRI(206)= 1000,
  NRGRI(207)= 1000,
  NRGRI(208)= 1000,
  NRGRI(209)= 1000,
  NRGRI(210)= 1000,
  NRGRI(211)= 1000,
  NRGRI(212)= 1024,
  NRGRI(213)= 1024,
  NRGRI(214)= 1024,
  NRGRI(215)= 1024,
  NRGRI(216)= 1024,
  NRGRI(217)= 1024,
  NRGRI(218)= 1024,
  NRGRI(219)= 1024,
  NRGRI(220)= 1024,
  NRGRI(221)= 1024,
  NRGRI(222)= 1024,
  NRGRI(223)= 1024,
  NRGRI(224)= 1024,
  NRGRI(225)= 1024,
  NRGRI(226)= 1024,
  NRGRI(227)= 1024,
  NRGRI(228)= 1024,
  NRGRI(229)= 1024,
  NRGRI(230)= 1024,
  NRGRI(231)= 1024,
  NRGRI(232)= 1024,
  NRGRI(233)= 1024,
  NRGRI(234)= 1024,
  NRGRI(235)= 1024,
  NRGRI(236)= 1024,
  NRGRI(237)= 1024,
  NRGRI(238)= 1024,
  NRGRI(239)= 1024,
  NRGRI(240)= 1024,
  NRGRI(241)= 1024,
  NRGRI(242)= 1024,
  NRGRI(243)= 1024,
  NRGRI(244)= 1024,
  NRGRI(245)= 1024,
  NRGRI(246)= 1024,
  NRGRI(247)= 1024,
  NRGRI(248)= 1024,
  NRGRI(249)= 1024,
  NRGRI(250)= 1024,
  NRGRI(251)= 1024,
  NRGRI(252)= 1024,
  NRGRI(253)= 1024,
  NRGRI(254)= 1024,
  NRGRI(255)= 1024,
  NRGRI(256)= 1024,
  NRGRI(257)= 1024,
  NRGRI(258)= 1024,
  NRGRI(259)= 1024,
  NRGRI(260)= 1024,
  NRGRI(261)= 1024,
  NRGRI(262)= 1024,
  NRGRI(263)= 1024,
  NRGRI(264)= 1024,
  NRGRI(265)= 1024,
  NRGRI(266)= 1024,
  NRGRI(267)= 1024,
  NRGRI(268)= 1024,
  NRGRI(269)= 1024,
  NRGRI(270)= 1024,
  NRGRI(271)= 1024,
  NRGRI(272)= 1024,
  NRGRI(273)= 1024,
  NRGRI(274)= 1024,
  NRGRI(275)= 1024,
  NRGRI(276)= 1024,
  NRGRI(277)= 1024,
  NRGRI(278)= 1024,
  NRGRI(279)= 1024,
  NRGRI(280)= 1024,
  NRGRI(281)= 1024,
  NRGRI(282)= 1024,
  NRGRI(283)= 1024,
  NRGRI(284)= 1024,
  NRGRI(285)= 1024,
  NRGRI(286)= 1024,
  NRGRI(287)= 1024,
  NRGRI(288)= 1024,
  NRGRI(289)= 1024,
  NRGRI(290)= 1024,
  NRGRI(291)= 1024,
  NRGRI(292)= 1024,
  NRGRI(293)= 1024,
  NRGRI(294)= 1024,
  NRGRI(295)= 1024,
  NRGRI(296)= 1024,
  NRGRI(297)= 1024,
  NRGRI(298)= 1024,
  NRGRI(299)= 1024,
  NRGRI(300)= 1024,
  NRGRI(301)= 1024,
  NRGRI(302)= 1000,
  NRGRI(303)= 1000,
  NRGRI(304)= 1000,
  NRGRI(305)= 1000,
  NRGRI(306)= 1000,
  NRGRI(307)= 1000,
  NRGRI(308)= 1000,
  NRGRI(309)= 1000,
  NRGRI(310)= 1000,
  NRGRI(311)= 1000,
  NRGRI(312)= 1000,
  NRGRI(313)= 1000,
  NRGRI(314)= 1000,
  NRGRI(315)= 1000,
  NRGRI(316)= 1000,
  NRGRI(317)= 1000,
  NRGRI(318)=  972,
  NRGRI(319)=  972,
  NRGRI(320)=  972,
  NRGRI(321)=  972,
  NRGRI(322)=  972,
  NRGRI(323)=  960,
  NRGRI(324)=  960,
  NRGRI(325)=  960,
  NRGRI(326)=  960,
  NRGRI(327)=  960,
  NRGRI(328)=  960,
  NRGRI(329)=  960,
  NRGRI(330)=  960,
  NRGRI(331)=  960,
  NRGRI(332)=  960,
  NRGRI(333)=  960,
  NRGRI(334)=  960,
  NRGRI(335)=  960,
  NRGRI(336)=  960,
  NRGRI(337)=  960,
  NRGRI(338)=  960,
  NRGRI(339)=  960,
  NRGRI(340)=  960,
  NRGRI(341)=  960,
  NRGRI(342)=  960,
  NRGRI(343)=  960,
  NRGRI(344)=  960,
  NRGRI(345)=  900,
  NRGRI(346)=  900,
  NRGRI(347)=  900,
  NRGRI(348)=  900,
  NRGRI(349)=  900,
  NRGRI(350)=  900,
  NRGRI(351)=  900,
  NRGRI(352)=  900,
  NRGRI(353)=  900,
  NRGRI(354)=  900,
  NRGRI(355)=  900,
  NRGRI(356)=  864,
  NRGRI(357)=  864,
  NRGRI(358)=  864,
  NRGRI(359)=  864,
  NRGRI(360)=  864,
  NRGRI(361)=  864,
  NRGRI(362)=  864,
  NRGRI(363)=  864,
  NRGRI(364)=  864,
  NRGRI(365)=  864,
  NRGRI(366)=  864,
  NRGRI(367)=  864,
  NRGRI(368)=  864,
  NRGRI(369)=  864,
  NRGRI(370)=  810,
  NRGRI(371)=  810,
  NRGRI(372)=  800,
  NRGRI(373)=  800,
  NRGRI(374)=  800,
  NRGRI(375)=  800,
  NRGRI(376)=  800,
  NRGRI(377)=  800,
  NRGRI(378)=  800,
  NRGRI(379)=  800,
  NRGRI(380)=  768,
  NRGRI(381)=  768,
  NRGRI(382)=  768,
  NRGRI(383)=  768,
  NRGRI(384)=  750,
  NRGRI(385)=  750,
  NRGRI(386)=  750,
  NRGRI(387)=  750,
  NRGRI(388)=  750,
  NRGRI(389)=  729,
  NRGRI(390)=  729,
  NRGRI(391)=  720,
  NRGRI(392)=  720,
  NRGRI(393)=  720,
  NRGRI(394)=  720,
  NRGRI(395)=  720,
  NRGRI(396)=  720,
  NRGRI(397)=  720,
  NRGRI(398)=  720,
  NRGRI(399)=  720,
  NRGRI(400)=  675,
  NRGRI(401)=  675,
  NRGRI(402)=  675,
  NRGRI(403)=  675,
  NRGRI(404)=  675,
  NRGRI(405)=  675,
  NRGRI(406)=  648,
  NRGRI(407)=  640,
  NRGRI(408)=  640,
  NRGRI(409)=  640,
  NRGRI(410)=  640,
  NRGRI(411)=  640,
  NRGRI(412)=  640,
  NRGRI(413)=  640,
  NRGRI(414)=  640,
  NRGRI(415)=  600,
  NRGRI(416)=  600,
  NRGRI(417)=  600,
  NRGRI(418)=  600,
  NRGRI(419)=  600,
  NRGRI(420)=  576,
  NRGRI(421)=  576,
  NRGRI(422)=  576,
  NRGRI(423)=  576,
  NRGRI(424)=  576,
  NRGRI(425)=  576,
  NRGRI(426)=  540,
  NRGRI(427)=  540,
  NRGRI(428)=  540,
  NRGRI(429)=  540,
  NRGRI(430)=  540,
  NRGRI(431)=  512,
  NRGRI(432)=  512,
  NRGRI(433)=  500,
  NRGRI(434)=  500,
  NRGRI(435)=  500,
  NRGRI(436)=  486,
  NRGRI(437)=  480,
  NRGRI(438)=  480,
  NRGRI(439)=  480,
  NRGRI(440)=  480,
  NRGRI(441)=  480,
  NRGRI(442)=  450,
  NRGRI(443)=  450,
  NRGRI(444)=  450,
  NRGRI(445)=  432,
  NRGRI(446)=  432,
  NRGRI(447)=  432,
  NRGRI(448)=  432,
  NRGRI(449)=  432,
  NRGRI(450)=  400,
  NRGRI(451)=  400,
  NRGRI(452)=  400,
  NRGRI(453)=  384,
  NRGRI(454)=  384,
  NRGRI(455)=  375,
  NRGRI(456)=  375,
  NRGRI(457)=  360,
  NRGRI(458)=  360,
  NRGRI(459)=  360,
  NRGRI(460)=  360,
  NRGRI(461)=  360,
  NRGRI(462)=  360,
  NRGRI(463)=  324,
  NRGRI(464)=  320,
  NRGRI(465)=  320,
  NRGRI(466)=  320,
  NRGRI(467)=  300,
  NRGRI(468)=  300,
  NRGRI(469)=  288,
  NRGRI(470)=  288,
  NRGRI(471)=  288,
  NRGRI(472)=  270,
  NRGRI(473)=  270,
  NRGRI(474)=  256,
  NRGRI(475)=  250,
  NRGRI(476)=  243,
  NRGRI(477)=  240,
  NRGRI(478)=  240,
  NRGRI(479)=  225,
  NRGRI(480)=  216,
  NRGRI(481)=  216,
  NRGRI(482)=  216,
  NRGRI(483)=  200,
  NRGRI(484)=  192,
  NRGRI(485)=  192,
  NRGRI(486)=  180,
  NRGRI(487)=  180,
  NRGRI(488)=  180,
  NRGRI(489)=  160,
  NRGRI(490)=  160,
  NRGRI(491)=  150,
  NRGRI(492)=  144,
  NRGRI(493)=  135,
  NRGRI(494)=  125,
  NRGRI(495)=  120,
  NRGRI(496)=  120,
  NRGRI(497)=  108,
  NRGRI(498)=  100,
  NRGRI(499)=   96,
  NRGRI(500)=   90,
  NRGRI(501)=   81,
  NRGRI(502)=   75,
  NRGRI(503)=   72,
  NRGRI(504)=   72,
  NRGRI(505)=   64,
  NRGRI(506)=   60,
  NRGRI(507)=   50,
  NRGRI(508)=   45,
  NRGRI(509)=   40,
  NRGRI(510)=   32,
  NRGRI(511)=   25,
  NRGRI(512)=   18,
 /
